MODEL 1
REMARK VINA RESULT:      -7.0      0.000      0.000
REMARK  Name = 577223
REMARK  6 active torsions:
REMARK  status: ('A' for Active; 'I' for Inactive)
REMARK    1  A    between atoms: S_1  and  N_5
REMARK    2  A    between atoms: S_1  and  C_7
REMARK    3  A    between atoms: C_8  and  C_13
REMARK    4  A    between atoms: C_9  and  C_14
REMARK    5  A    between atoms: C_10  and  C_15
REMARK    6  A    between atoms: C_18  and  C_19
REMARK                            x       y       z     vdW  Elec       q    Type
REMARK                         _______ _______ _______ _____ _____    ______ ____
ROOT
ATOM      1  S   UNL     1      31.387  -2.313  10.940  0.00  0.00    +0.000 S 
ATOM      2  O   UNL     1      31.986  -2.044   9.642  0.00  0.00    +0.000 OA
ATOM      3  O   UNL     1      31.633  -1.392  12.040  0.00  0.00    +0.000 OA
ENDROOT
BRANCH   1   7
ATOM      7  C   UNL     1      31.904  -3.915  11.436  0.00  0.00    +0.000 A 
ATOM      8  C   UNL     1      31.951  -4.246  12.790  0.00  0.00    +0.000 A 
ATOM      9  C   UNL     1      32.268  -4.859  10.474  0.00  0.00    +0.000 A 
ATOM     10  C   UNL     1      32.727  -6.462  12.221  0.00  0.00    +0.000 A 
ATOM     11  C   UNL     1      32.362  -5.519  13.183  0.00  0.00    +0.000 A 
ATOM     12  C   UNL     1      32.679  -6.132  10.868  0.00  0.00    +0.000 A 
ATOM     13  C   UNL     1      31.570  -3.262  13.848  0.00  0.00    +0.000 C 
ATOM     14  C   UNL     1      32.229  -4.541   9.015  0.00  0.00    +0.000 C 
ATOM     15  C   UNL     1      33.166  -7.824  12.641  0.00  0.00    +0.000 C 
ENDBRANCH   1   7
BRANCH   1   5
ATOM      4  O   UNL     1      28.617  -0.135   8.367  0.00  0.00    +0.000 OA
ATOM      5  N   UNL     1      29.692  -2.519  10.722  0.00  0.00    +0.000 N 
ATOM      6  N   UNL     1      29.539  -0.578   9.306  0.00  0.00    +0.000 NA
ATOM     16  C   UNL     1      29.033  -1.720   9.725  0.00  0.00    +0.000 A 
ATOM     17  C   UNL     1      27.832  -2.075   9.132  0.00  0.00    +0.000 A 
ATOM     18  C   UNL     1      27.605  -1.034   8.272  0.00  0.00    +0.000 A 
ATOM     19  C   UNL     1      26.535  -0.720   7.318  0.00  0.00    +0.000 C 
ATOM     20  H   UNL     1      29.238  -3.385  11.036  0.00  0.00    +0.000 HD
ENDBRANCH   1   5
TORSDOF 2
ENDMDL
MODEL 2
REMARK VINA RESULT:      -7.0      0.027      1.976
REMARK  Name = 577223
REMARK  6 active torsions:
REMARK  status: ('A' for Active; 'I' for Inactive)
REMARK    1  A    between atoms: S_1  and  N_5
REMARK    2  A    between atoms: S_1  and  C_7
REMARK    3  A    between atoms: C_8  and  C_13
REMARK    4  A    between atoms: C_9  and  C_14
REMARK    5  A    between atoms: C_10  and  C_15
REMARK    6  A    between atoms: C_18  and  C_19
REMARK                            x       y       z     vdW  Elec       q    Type
REMARK                         _______ _______ _______ _____ _____    ______ ____
ROOT
ATOM      1  S   UNL     1      31.371  -2.309  10.946  0.00  0.00    +0.000 S 
ATOM      2  O   UNL     1      31.974  -2.020   9.653  0.00  0.00    +0.000 OA
ATOM      3  O   UNL     1      31.604  -1.399  12.057  0.00  0.00    +0.000 OA
ENDROOT
BRANCH   1   7
ATOM      7  C   UNL     1      31.898  -3.913  11.424  0.00  0.00    +0.000 A 
ATOM      8  C   UNL     1      32.268  -4.844  10.454  0.00  0.00    +0.000 A 
ATOM      9  C   UNL     1      31.948  -4.256  12.776  0.00  0.00    +0.000 A 
ATOM     10  C   UNL     1      32.735  -6.462  12.187  0.00  0.00    +0.000 A 
ATOM     11  C   UNL     1      32.687  -6.119  10.836  0.00  0.00    +0.000 A 
ATOM     12  C   UNL     1      32.367  -5.531  13.156  0.00  0.00    +0.000 A 
ATOM     13  C   UNL     1      32.227  -4.513   8.998  0.00  0.00    +0.000 C 
ATOM     14  C   UNL     1      31.560  -3.285  13.842  0.00  0.00    +0.000 C 
ATOM     15  C   UNL     1      33.184  -7.825  12.594  0.00  0.00    +0.000 C 
ENDBRANCH   1   7
BRANCH   1   5
ATOM      4  O   UNL     1      28.602  -0.143   8.360  0.00  0.00    +0.000 OA
ATOM      5  N   UNL     1      29.679  -2.526  10.716  0.00  0.00    +0.000 N 
ATOM      6  N   UNL     1      29.522  -0.583   9.304  0.00  0.00    +0.000 NA
ATOM     16  C   UNL     1      29.020  -1.728   9.718  0.00  0.00    +0.000 A 
ATOM     17  C   UNL     1      27.825  -2.090   9.117  0.00  0.00    +0.000 A 
ATOM     18  C   UNL     1      27.597  -1.049   8.258  0.00  0.00    +0.000 A 
ATOM     19  C   UNL     1      26.531  -0.739   7.298  0.00  0.00    +0.000 C 
ATOM     20  H   UNL     1      29.228  -3.395  11.026  0.00  0.00    +0.000 HD
ENDBRANCH   1   5
TORSDOF 2
ENDMDL
MODEL 3
REMARK VINA RESULT:      -6.6     18.980     20.281
REMARK  Name = 577223
REMARK  6 active torsions:
REMARK  status: ('A' for Active; 'I' for Inactive)
REMARK    1  A    between atoms: S_1  and  N_5
REMARK    2  A    between atoms: S_1  and  C_7
REMARK    3  A    between atoms: C_8  and  C_13
REMARK    4  A    between atoms: C_9  and  C_14
REMARK    5  A    between atoms: C_10  and  C_15
REMARK    6  A    between atoms: C_18  and  C_19
REMARK                            x       y       z     vdW  Elec       q    Type
REMARK                         _______ _______ _______ _____ _____    ______ ____
ROOT
ATOM      1  S   UNL     1      16.942  -8.274  22.728  0.00  0.00    +0.000 S 
ATOM      2  O   UNL     1      17.820  -7.276  23.320  0.00  0.00    +0.000 OA
ATOM      3  O   UNL     1      16.282  -7.978  21.465  0.00  0.00    +0.000 OA
ENDROOT
BRANCH   1   7
ATOM      7  C   UNL     1      15.711  -8.661  23.917  0.00  0.00    +0.000 A 
ATOM      8  C   UNL     1      15.952  -8.433  25.271  0.00  0.00    +0.000 A 
ATOM      9  C   UNL     1      14.489  -9.197  23.507  0.00  0.00    +0.000 A 
ATOM     10  C   UNL     1      13.752  -9.278  25.806  0.00  0.00    +0.000 A 
ATOM     11  C   UNL     1      14.973  -8.741  26.216  0.00  0.00    +0.000 A 
ATOM     12  C   UNL     1      13.511  -9.504  24.452  0.00  0.00    +0.000 A 
ATOM     13  C   UNL     1      17.248  -7.862  25.749  0.00  0.00    +0.000 C 
ATOM     14  C   UNL     1      14.194  -9.453  22.065  0.00  0.00    +0.000 C 
ATOM     15  C   UNL     1      12.706  -9.606  26.816  0.00  0.00    +0.000 C 
ENDBRANCH   1   7
BRANCH   1   5
ATOM      4  O   UNL     1      20.753  -9.108  20.775  0.00  0.00    +0.000 OA
ATOM      5  N   UNL     1      17.812  -9.752  22.598  0.00  0.00    +0.000 N 
ATOM      6  N   UNL     1      19.456  -8.770  21.140  0.00  0.00    +0.000 NA
ATOM     16  C   UNL     1      19.108  -9.726  21.976  0.00  0.00    +0.000 A 
ATOM     17  C   UNL     1      20.083 -10.685  22.200  0.00  0.00    +0.000 A 
ATOM     18  C   UNL     1      21.115 -10.250  21.413  0.00  0.00    +0.000 A 
ATOM     19  C   UNL     1      22.467 -10.754  21.140  0.00  0.00    +0.000 C 
ATOM     20  H   UNL     1      17.581 -10.538  23.218  0.00  0.00    +0.000 HD
ENDBRANCH   1   5
TORSDOF 2
ENDMDL
MODEL 4
REMARK VINA RESULT:      -6.6     18.973     20.341
REMARK  Name = 577223
REMARK  6 active torsions:
REMARK  status: ('A' for Active; 'I' for Inactive)
REMARK    1  A    between atoms: S_1  and  N_5
REMARK    2  A    between atoms: S_1  and  C_7
REMARK    3  A    between atoms: C_8  and  C_13
REMARK    4  A    between atoms: C_9  and  C_14
REMARK    5  A    between atoms: C_10  and  C_15
REMARK    6  A    between atoms: C_18  and  C_19
REMARK                            x       y       z     vdW  Elec       q    Type
REMARK                         _______ _______ _______ _____ _____    ______ ____
ROOT
ATOM      1  S   UNL     1      16.954  -8.275  22.731  0.00  0.00    +0.000 S 
ATOM      2  O   UNL     1      17.831  -7.279  23.328  0.00  0.00    +0.000 OA
ATOM      3  O   UNL     1      16.299  -7.977  21.465  0.00  0.00    +0.000 OA
ENDROOT
BRANCH   1   7
ATOM      7  C   UNL     1      15.719  -8.664  23.914  0.00  0.00    +0.000 A 
ATOM      8  C   UNL     1      14.501  -9.203  23.501  0.00  0.00    +0.000 A 
ATOM      9  C   UNL     1      15.955  -8.433  25.271  0.00  0.00    +0.000 A 
ATOM     10  C   UNL     1      13.755  -9.281  25.798  0.00  0.00    +0.000 A 
ATOM     11  C   UNL     1      13.519  -9.512  24.443  0.00  0.00    +0.000 A 
ATOM     12  C   UNL     1      14.973  -8.742  26.211  0.00  0.00    +0.000 A 
ATOM     13  C   UNL     1      14.211  -9.463  22.058  0.00  0.00    +0.000 C 
ATOM     14  C   UNL     1      17.247  -7.858  25.750  0.00  0.00    +0.000 C 
ATOM     15  C   UNL     1      12.706  -9.611  26.804  0.00  0.00    +0.000 C 
ENDBRANCH   1   7
BRANCH   1   5
ATOM      4  O   UNL     1      20.759  -9.114  20.765  0.00  0.00    +0.000 OA
ATOM      5  N   UNL     1      17.825  -9.754  22.601  0.00  0.00    +0.000 N 
ATOM      6  N   UNL     1      19.463  -8.775  21.134  0.00  0.00    +0.000 NA
ATOM     16  C   UNL     1      19.118  -9.729  21.974  0.00  0.00    +0.000 A 
ATOM     17  C   UNL     1      20.094 -10.687  22.197  0.00  0.00    +0.000 A 
ATOM     18  C   UNL     1      21.123 -10.254  21.404  0.00  0.00    +0.000 A 
ATOM     19  C   UNL     1      22.474 -10.758  21.128  0.00  0.00    +0.000 C 
ATOM     20  H   UNL     1      17.596 -10.538  23.224  0.00  0.00    +0.000 HD
ENDBRANCH   1   5
TORSDOF 2
ENDMDL
MODEL 5
REMARK VINA RESULT:      -6.3      4.108      6.138
REMARK  Name = 577223
REMARK  6 active torsions:
REMARK  status: ('A' for Active; 'I' for Inactive)
REMARK    1  A    between atoms: S_1  and  N_5
REMARK    2  A    between atoms: S_1  and  C_7
REMARK    3  A    between atoms: C_8  and  C_13
REMARK    4  A    between atoms: C_9  and  C_14
REMARK    5  A    between atoms: C_10  and  C_15
REMARK    6  A    between atoms: C_18  and  C_19
REMARK                            x       y       z     vdW  Elec       q    Type
REMARK                         _______ _______ _______ _____ _____    ______ ____
ROOT
ATOM      1  S   UNL     1      32.353  -0.790   9.890  0.00  0.00    +0.000 S 
ATOM      2  O   UNL     1      33.133  -1.578   8.949  0.00  0.00    +0.000 OA
ATOM      3  O   UNL     1      32.678  -0.850  11.307  0.00  0.00    +0.000 OA
ENDROOT
BRANCH   1   7
ATOM      7  C   UNL     1      30.671  -1.247   9.690  0.00  0.00    +0.000 A 
ATOM      8  C   UNL     1      29.777  -0.369   9.077  0.00  0.00    +0.000 A 
ATOM      9  C   UNL     1      30.227  -2.490  10.143  0.00  0.00    +0.000 A 
ATOM     10  C   UNL     1      27.996  -1.975   9.372  0.00  0.00    +0.000 A 
ATOM     11  C   UNL     1      28.440  -0.732   8.919  0.00  0.00    +0.000 A 
ATOM     12  C   UNL     1      28.890  -2.853   9.983  0.00  0.00    +0.000 A 
ATOM     13  C   UNL     1      30.215   0.971   8.580  0.00  0.00    +0.000 C 
ATOM     14  C   UNL     1      31.155  -3.456  10.803  0.00  0.00    +0.000 C 
ATOM     15  C   UNL     1      26.567  -2.364   9.202  0.00  0.00    +0.000 C 
ENDBRANCH   1   7
BRANCH   1   5
ATOM      4  O   UNL     1      35.686   1.994   9.463  0.00  0.00    +0.000 OA
ATOM      5  N   UNL     1      32.360   0.848   9.360  0.00  0.00    +0.000 N 
ATOM      6  N   UNL     1      34.698   1.105   9.869  0.00  0.00    +0.000 NA
ATOM     16  C   UNL     1      33.627   1.512   9.219  0.00  0.00    +0.000 A 
ATOM     17  C   UNL     1      33.826   2.613   8.402  0.00  0.00    +0.000 A 
ATOM     18  C   UNL     1      35.155   2.887   8.590  0.00  0.00    +0.000 A 
ATOM     19  C   UNL     1      36.067   3.905   8.057  0.00  0.00    +0.000 C 
ATOM     20  H   UNL     1      31.549   1.225   8.855  0.00  0.00    +0.000 HD
ENDBRANCH   1   5
TORSDOF 2
ENDMDL
MODEL 6
REMARK VINA RESULT:      -6.2     19.930     21.266
REMARK  Name = 577223
REMARK  6 active torsions:
REMARK  status: ('A' for Active; 'I' for Inactive)
REMARK    1  A    between atoms: S_1  and  N_5
REMARK    2  A    between atoms: S_1  and  C_7
REMARK    3  A    between atoms: C_8  and  C_13
REMARK    4  A    between atoms: C_9  and  C_14
REMARK    5  A    between atoms: C_10  and  C_15
REMARK    6  A    between atoms: C_18  and  C_19
REMARK                            x       y       z     vdW  Elec       q    Type
REMARK                         _______ _______ _______ _____ _____    ______ ____
ROOT
ATOM      1  S   UNL     1      17.301  -9.067  22.536  0.00  0.00    +0.000 S 
ATOM      2  O   UNL     1      18.002  -7.817  22.785  0.00  0.00    +0.000 OA
ATOM      3  O   UNL     1      16.805  -9.348  21.196  0.00  0.00    +0.000 OA
ENDROOT
BRANCH   1   7
ATOM      7  C   UNL     1      15.950  -9.143  23.653  0.00  0.00    +0.000 A 
ATOM      8  C   UNL     1      14.642  -9.137  23.168  0.00  0.00    +0.000 A 
ATOM      9  C   UNL     1      16.184  -9.211  25.027  0.00  0.00    +0.000 A 
ATOM     10  C   UNL     1      13.803  -9.264  25.430  0.00  0.00    +0.000 A 
ATOM     11  C   UNL     1      13.568  -9.198  24.056  0.00  0.00    +0.000 A 
ATOM     12  C   UNL     1      15.110  -9.271  25.914  0.00  0.00    +0.000 A 
ATOM     13  C   UNL     1      14.352  -9.066  21.704  0.00  0.00    +0.000 C 
ATOM     14  C   UNL     1      17.570  -9.220  25.582  0.00  0.00    +0.000 C 
ATOM     15  C   UNL     1      12.655  -9.329  26.380  0.00  0.00    +0.000 C 
ENDBRANCH   1   7
BRANCH   1   5
ATOM      4  O   UNL     1      16.822 -13.370  21.990  0.00  0.00    +0.000 OA
ATOM      5  N   UNL     1      18.299 -10.363  23.070  0.00  0.00    +0.000 N 
ATOM      6  N   UNL     1      16.731 -12.019  22.300  0.00  0.00    +0.000 NA
ATOM     16  C   UNL     1      17.956 -11.699  22.663  0.00  0.00    +0.000 A 
ATOM     17  C   UNL     1      18.866 -12.743  22.619  0.00  0.00    +0.000 A 
ATOM     18  C   UNL     1      18.099 -13.789  22.184  0.00  0.00    +0.000 A 
ATOM     19  C   UNL     1      18.374 -15.203  21.902  0.00  0.00    +0.000 C 
ATOM     20  H   UNL     1      19.263 -10.175  23.374  0.00  0.00    +0.000 HD
ENDBRANCH   1   5
TORSDOF 2
ENDMDL
MODEL 7
REMARK VINA RESULT:      -6.1      2.881      3.944
REMARK  Name = 577223
REMARK  6 active torsions:
REMARK  status: ('A' for Active; 'I' for Inactive)
REMARK    1  A    between atoms: S_1  and  N_5
REMARK    2  A    between atoms: S_1  and  C_7
REMARK    3  A    between atoms: C_8  and  C_13
REMARK    4  A    between atoms: C_9  and  C_14
REMARK    5  A    between atoms: C_10  and  C_15
REMARK    6  A    between atoms: C_18  and  C_19
REMARK                            x       y       z     vdW  Elec       q    Type
REMARK                         _______ _______ _______ _____ _____    ______ ____
ROOT
ATOM      1  S   UNL     1      31.503  -2.220  10.908  0.00  0.00    +0.000 S 
ATOM      2  O   UNL     1      31.574  -1.396  12.106  0.00  0.00    +0.000 OA
ATOM      3  O   UNL     1      30.262  -2.266  10.151  0.00  0.00    +0.000 OA
ENDROOT
BRANCH   1   7
ATOM      7  C   UNL     1      31.928  -3.858  11.372  0.00  0.00    +0.000 A 
ATOM      8  C   UNL     1      32.256  -4.797  10.395  0.00  0.00    +0.000 A 
ATOM      9  C   UNL     1      31.940  -4.220  12.720  0.00  0.00    +0.000 A 
ATOM     10  C   UNL     1      32.604  -6.462  12.111  0.00  0.00    +0.000 A 
ATOM     11  C   UNL     1      32.593  -6.099  10.764  0.00  0.00    +0.000 A 
ATOM     12  C   UNL     1      32.278  -5.522  13.088  0.00  0.00    +0.000 A 
ATOM     13  C   UNL     1      32.254  -4.447   8.943  0.00  0.00    +0.000 C 
ATOM     14  C   UNL     1      31.596  -3.241  13.794  0.00  0.00    +0.000 C 
ATOM     15  C   UNL     1      32.965  -7.853  12.506  0.00  0.00    +0.000 C 
ENDBRANCH   1   7
BRANCH   1   5
ATOM      4  O   UNL     1      32.287   1.557   8.869  0.00  0.00    +0.000 OA
ATOM      5  N   UNL     1      32.803  -1.777   9.870  0.00  0.00    +0.000 N 
ATOM      6  N   UNL     1      31.803   0.354   9.366  0.00  0.00    +0.000 NA
ATOM     16  C   UNL     1      32.870  -0.418   9.406  0.00  0.00    +0.000 A 
ATOM     17  C   UNL     1      34.040   0.184   8.971  0.00  0.00    +0.000 A 
ATOM     18  C   UNL     1      33.620   1.444   8.638  0.00  0.00    +0.000 A 
ATOM     19  C   UNL     1      34.297   2.633   8.108  0.00  0.00    +0.000 C 
ATOM     20  H   UNL     1      33.659  -2.345   9.851  0.00  0.00    +0.000 HD
ENDBRANCH   1   5
TORSDOF 2
ENDMDL
MODEL 8
REMARK VINA RESULT:      -6.1      2.876      3.411
REMARK  Name = 577223
REMARK  6 active torsions:
REMARK  status: ('A' for Active; 'I' for Inactive)
REMARK    1  A    between atoms: S_1  and  N_5
REMARK    2  A    between atoms: S_1  and  C_7
REMARK    3  A    between atoms: C_8  and  C_13
REMARK    4  A    between atoms: C_9  and  C_14
REMARK    5  A    between atoms: C_10  and  C_15
REMARK    6  A    between atoms: C_18  and  C_19
REMARK                            x       y       z     vdW  Elec       q    Type
REMARK                         _______ _______ _______ _____ _____    ______ ____
ROOT
ATOM      1  S   UNL     1      31.504  -2.225  10.923  0.00  0.00    +0.000 S 
ATOM      2  O   UNL     1      31.597  -1.392  12.113  0.00  0.00    +0.000 OA
ATOM      3  O   UNL     1      30.251  -2.271  10.185  0.00  0.00    +0.000 OA
ENDROOT
BRANCH   1   7
ATOM      7  C   UNL     1      31.929  -3.861  11.394  0.00  0.00    +0.000 A 
ATOM      8  C   UNL     1      31.932  -4.221  12.742  0.00  0.00    +0.000 A 
ATOM      9  C   UNL     1      32.262  -4.803  10.420  0.00  0.00    +0.000 A 
ATOM     10  C   UNL     1      32.604  -6.463  12.141  0.00  0.00    +0.000 A 
ATOM     11  C   UNL     1      32.270  -5.522  13.115  0.00  0.00    +0.000 A 
ATOM     12  C   UNL     1      32.600  -6.103  10.794  0.00  0.00    +0.000 A 
ATOM     13  C   UNL     1      31.582  -3.241  13.813  0.00  0.00    +0.000 C 
ATOM     14  C   UNL     1      32.269  -4.454   8.968  0.00  0.00    +0.000 C 
ATOM     15  C   UNL     1      32.964  -7.854  12.541  0.00  0.00    +0.000 C 
ENDBRANCH   1   7
BRANCH   1   5
ATOM      4  O   UNL     1      32.305   1.549   8.885  0.00  0.00    +0.000 OA
ATOM      5  N   UNL     1      32.790  -1.797   9.862  0.00  0.00    +0.000 N 
ATOM      6  N   UNL     1      31.813   0.350   9.386  0.00  0.00    +0.000 NA
ATOM     16  C   UNL     1      32.869  -0.438   9.402  0.00  0.00    +0.000 A 
ATOM     17  C   UNL     1      34.039   0.149   8.947  0.00  0.00    +0.000 A 
ATOM     18  C   UNL     1      33.631   1.417   8.628  0.00  0.00    +0.000 A 
ATOM     19  C   UNL     1      34.316   2.598   8.090  0.00  0.00    +0.000 C 
ATOM     20  H   UNL     1      33.637  -2.378   9.824  0.00  0.00    +0.000 HD
ENDBRANCH   1   5
TORSDOF 2
ENDMDL
MODEL 9
REMARK VINA RESULT:      -6.1      4.556      7.504
REMARK  Name = 577223
REMARK  6 active torsions:
REMARK  status: ('A' for Active; 'I' for Inactive)
REMARK    1  A    between atoms: S_1  and  N_5
REMARK    2  A    between atoms: S_1  and  C_7
REMARK    3  A    between atoms: C_8  and  C_13
REMARK    4  A    between atoms: C_9  and  C_14
REMARK    5  A    between atoms: C_10  and  C_15
REMARK    6  A    between atoms: C_18  and  C_19
REMARK                            x       y       z     vdW  Elec       q    Type
REMARK                         _______ _______ _______ _____ _____    ______ ____
ROOT
ATOM      1  S   UNL     1      33.428  -6.998  11.116  0.00  0.00    +0.000 S 
ATOM      2  O   UNL     1      34.628  -7.183  11.918  0.00  0.00    +0.000 OA
ATOM      3  O   UNL     1      33.538  -6.995   9.664  0.00  0.00    +0.000 OA
ENDROOT
BRANCH   1   7
ATOM      7  C   UNL     1      32.689  -5.488  11.617  0.00  0.00    +0.000 A 
ATOM      8  C   UNL     1      32.265  -4.566  10.660  0.00  0.00    +0.000 A 
ATOM      9  C   UNL     1      32.524  -5.209  12.975  0.00  0.00    +0.000 A 
ATOM     10  C   UNL     1      31.514  -3.087  12.416  0.00  0.00    +0.000 A 
ATOM     11  C   UNL     1      31.678  -3.366  11.059  0.00  0.00    +0.000 A 
ATOM     12  C   UNL     1      31.937  -4.008  13.373  0.00  0.00    +0.000 A 
ATOM     13  C   UNL     1      32.425  -4.829   9.198  0.00  0.00    +0.000 C 
ATOM     14  C   UNL     1      32.965  -6.172  14.028  0.00  0.00    +0.000 C 
ATOM     15  C   UNL     1      30.886  -1.804  12.843  0.00  0.00    +0.000 C 
ENDBRANCH   1   7
BRANCH   1   5
ATOM      4  O   UNL     1      33.327 -11.306  10.430  0.00  0.00    +0.000 OA
ATOM      5  N   UNL     1      32.263  -8.165  11.608  0.00  0.00    +0.000 N 
ATOM      6  N   UNL     1      33.351  -9.918  10.369  0.00  0.00    +0.000 NA
ATOM     16  C   UNL     1      32.527  -9.550  11.329  0.00  0.00    +0.000 A 
ATOM     17  C   UNL     1      31.951 -10.595  12.033  0.00  0.00    +0.000 A 
ATOM     18  C   UNL     1      32.490 -11.697  11.425  0.00  0.00    +0.000 A 
ATOM     19  C   UNL     1      32.346 -13.143  11.630  0.00  0.00    +0.000 C 
ATOM     20  H   UNL     1      31.588  -7.933  12.348  0.00  0.00    +0.000 HD
ENDBRANCH   1   5
TORSDOF 2
ENDMDL
MODEL 10
REMARK VINA RESULT:      -6.0      1.642      1.815
REMARK  Name = 577223
REMARK  6 active torsions:
REMARK  status: ('A' for Active; 'I' for Inactive)
REMARK    1  A    between atoms: S_1  and  N_5
REMARK    2  A    between atoms: S_1  and  C_7
REMARK    3  A    between atoms: C_8  and  C_13
REMARK    4  A    between atoms: C_9  and  C_14
REMARK    5  A    between atoms: C_10  and  C_15
REMARK    6  A    between atoms: C_18  and  C_19
REMARK                            x       y       z     vdW  Elec       q    Type
REMARK                         _______ _______ _______ _____ _____    ______ ____
ROOT
ATOM      1  S   UNL     1      32.603  -3.598  10.360  0.00  0.00    +0.000 S 
ATOM      2  O   UNL     1      32.539  -3.800   8.920  0.00  0.00    +0.000 OA
ATOM      3  O   UNL     1      33.628  -2.723  10.908  0.00  0.00    +0.000 OA
ENDROOT
BRANCH   1   7
ATOM      7  C   UNL     1      32.771  -5.179  11.104  0.00  0.00    +0.000 A 
ATOM      8  C   UNL     1      32.439  -5.356  12.447  0.00  0.00    +0.000 A 
ATOM      9  C   UNL     1      33.235  -6.258  10.351  0.00  0.00    +0.000 A 
ATOM     10  C   UNL     1      33.038  -7.692  12.286  0.00  0.00    +0.000 A 
ATOM     11  C   UNL     1      32.572  -6.613  13.038  0.00  0.00    +0.000 A 
ATOM     12  C   UNL     1      33.368  -7.514  10.943  0.00  0.00    +0.000 A 
ATOM     13  C   UNL     1      31.939  -4.225  13.284  0.00  0.00    +0.000 C 
ATOM     14  C   UNL     1      33.599  -6.106   8.911  0.00  0.00    +0.000 C 
ATOM     15  C   UNL     1      33.179  -9.035  12.917  0.00  0.00    +0.000 C 
ENDBRANCH   1   7
BRANCH   1   5
ATOM      4  O   UNL     1      30.362   0.029   9.430  0.00  0.00    +0.000 OA
ATOM      5  N   UNL     1      31.052  -3.092  10.905  0.00  0.00    +0.000 N 
ATOM      6  N   UNL     1      31.265  -0.949   9.830  0.00  0.00    +0.000 NA
ATOM     16  C   UNL     1      30.500  -1.882  10.359  0.00  0.00    +0.000 A 
ATOM     17  C   UNL     1      29.144  -1.600  10.341  0.00  0.00    +0.000 A 
ATOM     18  C   UNL     1      29.103  -0.371   9.739  0.00  0.00    +0.000 A 
ATOM     19  C   UNL     1      28.017   0.550   9.382  0.00  0.00    +0.000 C 
ATOM     20  H   UNL     1      30.413  -3.772  11.334  0.00  0.00    +0.000 HD
ENDBRANCH   1   5
TORSDOF 2
ENDMDL
