REMARK  Name = 577223
REMARK  6 active torsions:
REMARK  status: ('A' for Active; 'I' for Inactive)
REMARK    1  A    between atoms: S_1  and  N_5
REMARK    2  A    between atoms: S_1  and  C_7
REMARK    3  A    between atoms: C_8  and  C_13
REMARK    4  A    between atoms: C_9  and  C_14
REMARK    5  A    between atoms: C_10  and  C_15
REMARK    6  A    between atoms: C_18  and  C_19
REMARK                            x       y       z     vdW  Elec       q    Type
REMARK                         _______ _______ _______ _____ _____    ______ ____
ROOT
ATOM      1  S   UNL     1       0.011  -1.748  -0.549  0.00  0.00    +0.000 S 
ATOM      2  O   UNL     1       0.561  -3.062  -0.251  0.00  0.00    +0.000 OA
ATOM      3  O   UNL     1      -0.509  -1.482  -1.882  0.00  0.00    +0.000 OA
ENDROOT
BRANCH   1   7
ATOM      7  C   UNL     1       1.258  -0.565  -0.196  0.00  0.00    +0.000 A 
ATOM      8  C   UNL     1       1.866  -0.545   1.059  0.00  0.00    +0.000 A 
ATOM      9  C   UNL     1       1.642   0.356  -1.172  0.00  0.00    +0.000 A 
ATOM     10  C   UNL     1       3.240   1.317   0.364  0.00  0.00    +0.000 A 
ATOM     11  C   UNL     1       2.857   0.396   1.339  0.00  0.00    +0.000 A 
ATOM     12  C   UNL     1       2.633   1.296  -0.891  0.00  0.00    +0.000 A 
ATOM     13  C   UNL     1       1.481  -1.514   2.129  0.00  0.00    +0.000 C 
ATOM     14  C   UNL     1       1.014   0.364  -2.527  0.00  0.00    +0.000 C 
ATOM     15  C   UNL     1       4.300   2.322   0.663  0.00  0.00    +0.000 C 
ENDBRANCH   1   7
BRANCH   1   5
ATOM      4  O   UNL     1      -2.937   1.468  -0.467  0.00  0.00    +0.000 OA
ATOM      5  N   UNL     1      -1.191  -1.385   0.628  0.00  0.00    +0.000 N 
ATOM      6  N   UNL     1      -1.812   0.653  -0.492  0.00  0.00    +0.000 NA
ATOM     16  C   UNL     1      -2.107  -0.311   0.356  0.00  0.00    +0.000 A 
ATOM     17  C   UNL     1      -3.354  -0.201   0.950  0.00  0.00    +0.000 A 
ATOM     18  C   UNL     1      -3.848   0.949   0.395  0.00  0.00    +0.000 A 
ATOM     19  C   UNL     1      -5.106   1.690   0.544  0.00  0.00    +0.000 C 
ATOM     20  H   UNL     1      -1.458  -2.094   1.322  0.00  0.00    +0.000 HD
ENDBRANCH   1   5
TORSDOF 2
