MODEL 1
REMARK VINA RESULT:      -6.2      0.000      0.000
REMARK  Name = 694829
REMARK  5 active torsions:
REMARK  status: ('A' for Active; 'I' for Inactive)
REMARK    1  A    between atoms: S_1  and  N_6
REMARK    2  A    between atoms: S_1  and  C_8
REMARK    3  A    between atoms: O_5  and  C_14
REMARK    4  A    between atoms: O_5  and  C_18
REMARK    5  A    between atoms: C_16  and  C_17
REMARK                            x       y       z     vdW  Elec       q    Type
REMARK                         _______ _______ _______ _____ _____    ______ ____
ROOT
ATOM      1  S   UNL     1      26.278  -2.652   8.529  0.00  0.00    +0.000 S 
ATOM      2  O   UNL     1      25.956  -1.928   7.304  0.00  0.00    +0.000 OA
ATOM      3  O   UNL     1      25.356  -2.573   9.656  0.00  0.00    +0.000 OA
ENDROOT
BRANCH   1   6
ATOM      4  O   UNL     1      23.420  -5.733   7.367  0.00  0.00    +0.000 OA
ATOM      6  N   UNL     1      26.547  -4.303   8.119  0.00  0.00    +0.000 N 
ATOM      7  N   UNL     1      24.241  -4.621   7.509  0.00  0.00    +0.000 NA
ATOM     11  C   UNL     1      25.400  -5.134   7.866  0.00  0.00    +0.000 A 
ATOM     15  C   UNL     1      25.418  -6.515   7.972  0.00  0.00    +0.000 A 
ATOM     16  C   UNL     1      24.133  -6.855   7.645  0.00  0.00    +0.000 A 
ATOM     17  C   UNL     1      23.415  -8.131   7.542  0.00  0.00    +0.000 C 
ATOM     19  H   UNL     1      27.400  -4.772   8.449  0.00  0.00    +0.000 HD
ENDBRANCH   1   6
BRANCH   1   8
ATOM      8  C   UNL     1      27.856  -2.123   9.059  0.00  0.00    +0.000 A 
ATOM      9  C   UNL     1      28.725  -3.026   9.669  0.00  0.00    +0.000 A 
ATOM     10  C   UNL     1      28.246  -0.797   8.871  0.00  0.00    +0.000 A 
ATOM     12  C   UNL     1      29.986  -2.603  10.093  0.00  0.00    +0.000 A 
ATOM     13  C   UNL     1      29.505  -0.374   9.294  0.00  0.00    +0.000 A 
ATOM     14  C   UNL     1      30.376  -1.277   9.905  0.00  0.00    +0.000 A 
BRANCH  14   5
ATOM      5  O   UNL     1      31.606  -0.865  10.317  0.00  0.00    +0.000 OA
ATOM     18  C   UNL     1      32.353  -0.049   9.418  0.00  0.00    +0.000 C 
ENDBRANCH  14   5
ENDBRANCH   1   8
TORSDOF 3
ENDMDL
MODEL 2
REMARK VINA RESULT:      -6.2      4.220      5.625
REMARK  Name = 694829
REMARK  5 active torsions:
REMARK  status: ('A' for Active; 'I' for Inactive)
REMARK    1  A    between atoms: S_1  and  N_6
REMARK    2  A    between atoms: S_1  and  C_8
REMARK    3  A    between atoms: O_5  and  C_14
REMARK    4  A    between atoms: O_5  and  C_18
REMARK    5  A    between atoms: C_16  and  C_17
REMARK                            x       y       z     vdW  Elec       q    Type
REMARK                         _______ _______ _______ _____ _____    ______ ____
ROOT
ATOM      1  S   UNL     1      22.433  -4.688   7.524  0.00  0.00    +0.000 S 
ATOM      2  O   UNL     1      21.836  -5.456   8.611  0.00  0.00    +0.000 OA
ATOM      3  O   UNL     1      22.441  -5.258   6.182  0.00  0.00    +0.000 OA
ENDROOT
BRANCH   1   6
ATOM      4  O   UNL     1      18.496  -3.537   6.045  0.00  0.00    +0.000 OA
ATOM      6  N   UNL     1      21.681  -3.139   7.488  0.00  0.00    +0.000 N 
ATOM      7  N   UNL     1      19.607  -4.064   6.692  0.00  0.00    +0.000 NA
ATOM     11  C   UNL     1      20.399  -3.023   6.847  0.00  0.00    +0.000 A 
ATOM     15  C   UNL     1      19.898  -1.830   6.351  0.00  0.00    +0.000 A 
ATOM     16  C   UNL     1      18.681  -2.206   5.847  0.00  0.00    +0.000 A 
ATOM     17  C   UNL     1      17.595  -1.486   5.172  0.00  0.00    +0.000 C 
ATOM     19  H   UNL     1      22.266  -2.294   7.521  0.00  0.00    +0.000 HD
ENDBRANCH   1   6
BRANCH   1   8
ATOM      8  C   UNL     1      24.075  -4.310   7.981  0.00  0.00    +0.000 A 
ATOM      9  C   UNL     1      24.433  -2.996   8.276  0.00  0.00    +0.000 A 
ATOM     10  C   UNL     1      25.030  -5.325   8.052  0.00  0.00    +0.000 A 
ATOM     12  C   UNL     1      25.746  -2.694   8.641  0.00  0.00    +0.000 A 
ATOM     13  C   UNL     1      26.342  -5.025   8.417  0.00  0.00    +0.000 A 
ATOM     14  C   UNL     1      26.700  -3.709   8.712  0.00  0.00    +0.000 A 
BRANCH  14   5
ATOM      5  O   UNL     1      27.980  -3.414   9.069  0.00  0.00    +0.000 OA
ATOM     18  C   UNL     1      28.210  -2.145   9.676  0.00  0.00    +0.000 C 
ENDBRANCH  14   5
ENDBRANCH   1   8
TORSDOF 3
ENDMDL
MODEL 3
REMARK VINA RESULT:      -5.9      5.315      9.342
REMARK  Name = 694829
REMARK  5 active torsions:
REMARK  status: ('A' for Active; 'I' for Inactive)
REMARK    1  A    between atoms: S_1  and  N_6
REMARK    2  A    between atoms: S_1  and  C_8
REMARK    3  A    between atoms: O_5  and  C_14
REMARK    4  A    between atoms: O_5  and  C_18
REMARK    5  A    between atoms: C_16  and  C_17
REMARK                            x       y       z     vdW  Elec       q    Type
REMARK                         _______ _______ _______ _____ _____    ______ ____
ROOT
ATOM      1  S   UNL     1      32.184  -2.669  12.965  0.00  0.00    +0.000 S 
ATOM      2  O   UNL     1      33.221  -3.519  12.390  0.00  0.00    +0.000 OA
ATOM      3  O   UNL     1      31.594  -3.048  14.243  0.00  0.00    +0.000 OA
ENDROOT
BRANCH   1   6
ATOM      4  O   UNL     1      34.633  -0.826  16.066  0.00  0.00    +0.000 OA
ATOM      6  N   UNL     1      32.804  -1.066  13.069  0.00  0.00    +0.000 N 
ATOM      7  N   UNL     1      34.068  -1.586  15.049  0.00  0.00    +0.000 NA
ATOM     11  C   UNL     1      33.510  -0.688  14.264  0.00  0.00    +0.000 A 
ATOM     15  C   UNL     1      33.661   0.625  14.679  0.00  0.00    +0.000 A 
ATOM     16  C   UNL     1      34.383   0.489  15.834  0.00  0.00    +0.000 A 
ATOM     17  C   UNL     1      34.914   1.441  16.818  0.00  0.00    +0.000 C 
ATOM     19  H   UNL     1      32.346  -0.313  12.538  0.00  0.00    +0.000 HD
ENDBRANCH   1   6
BRANCH   1   8
ATOM      8  C   UNL     1      30.908  -2.516  11.784  0.00  0.00    +0.000 A 
ATOM      9  C   UNL     1      30.901  -3.332  10.654  0.00  0.00    +0.000 A 
ATOM     10  C   UNL     1      29.894  -1.575  11.971  0.00  0.00    +0.000 A 
ATOM     12  C   UNL     1      29.881  -3.209   9.709  0.00  0.00    +0.000 A 
ATOM     13  C   UNL     1      28.874  -1.452  11.028  0.00  0.00    +0.000 A 
ATOM     14  C   UNL     1      28.867  -2.269   9.897  0.00  0.00    +0.000 A 
BRANCH  14   5
ATOM      5  O   UNL     1      27.872  -2.150   8.976  0.00  0.00    +0.000 OA
ATOM     18  C   UNL     1      27.485  -0.828   8.605  0.00  0.00    +0.000 C 
ENDBRANCH  14   5
ENDBRANCH   1   8
TORSDOF 3
ENDMDL
MODEL 4
REMARK VINA RESULT:      -5.8      4.431      7.162
REMARK  Name = 694829
REMARK  5 active torsions:
REMARK  status: ('A' for Active; 'I' for Inactive)
REMARK    1  A    between atoms: S_1  and  N_6
REMARK    2  A    between atoms: S_1  and  C_8
REMARK    3  A    between atoms: O_5  and  C_14
REMARK    4  A    between atoms: O_5  and  C_18
REMARK    5  A    between atoms: C_16  and  C_17
REMARK                            x       y       z     vdW  Elec       q    Type
REMARK                         _______ _______ _______ _____ _____    ______ ____
ROOT
ATOM      1  S   UNL     1      31.152  -1.883  11.626  0.00  0.00    +0.000 S 
ATOM      2  O   UNL     1      30.672  -1.656  12.985  0.00  0.00    +0.000 OA
ATOM      3  O   UNL     1      32.398  -1.254  11.206  0.00  0.00    +0.000 OA
ENDROOT
BRANCH   1   6
ATOM      4  O   UNL     1      33.082  -4.953  14.047  0.00  0.00    +0.000 OA
ATOM      6  N   UNL     1      31.251  -3.584  11.372  0.00  0.00    +0.000 N 
ATOM      7  N   UNL     1      32.313  -3.932  13.503  0.00  0.00    +0.000 NA
ATOM     11  C   UNL     1      32.043  -4.361  12.288  0.00  0.00    +0.000 A 
ATOM     15  C   UNL     1      32.574  -5.602  11.975  0.00  0.00    +0.000 A 
ATOM     16  C   UNL     1      33.231  -5.942  13.128  0.00  0.00    +0.000 A 
ATOM     17  C   UNL     1      34.021  -7.108  13.540  0.00  0.00    +0.000 C 
ATOM     19  H   UNL     1      31.131  -3.959  10.422  0.00  0.00    +0.000 HD
ENDBRANCH   1   6
BRANCH   1   8
ATOM      8  C   UNL     1      29.884  -1.401  10.527  0.00  0.00    +0.000 A 
ATOM      9  C   UNL     1      30.131  -0.424   9.563  0.00  0.00    +0.000 A 
ATOM     10  C   UNL     1      28.624  -1.993  10.613  0.00  0.00    +0.000 A 
ATOM     12  C   UNL     1      29.117  -0.038   8.685  0.00  0.00    +0.000 A 
ATOM     13  C   UNL     1      27.611  -1.608   9.736  0.00  0.00    +0.000 A 
ATOM     14  C   UNL     1      27.857  -0.630   8.771  0.00  0.00    +0.000 A 
BRANCH  14   5
ATOM      5  O   UNL     1      26.870  -0.254   7.914  0.00  0.00    +0.000 OA
ATOM     18  C   UNL     1      26.638  -1.090   6.783  0.00  0.00    +0.000 C 
ENDBRANCH  14   5
ENDBRANCH   1   8
TORSDOF 3
ENDMDL
MODEL 5
REMARK VINA RESULT:      -5.7      4.619      7.897
REMARK  Name = 694829
REMARK  5 active torsions:
REMARK  status: ('A' for Active; 'I' for Inactive)
REMARK    1  A    between atoms: S_1  and  N_6
REMARK    2  A    between atoms: S_1  and  C_8
REMARK    3  A    between atoms: O_5  and  C_14
REMARK    4  A    between atoms: O_5  and  C_18
REMARK    5  A    between atoms: C_16  and  C_17
REMARK                            x       y       z     vdW  Elec       q    Type
REMARK                         _______ _______ _______ _____ _____    ______ ____
ROOT
ATOM      1  S   UNL     1      31.956  -1.885  10.789  0.00  0.00    +0.000 S 
ATOM      2  O   UNL     1      32.823  -0.712  10.768  0.00  0.00    +0.000 OA
ATOM      3  O   UNL     1      32.433  -3.123  10.184  0.00  0.00    +0.000 OA
ENDROOT
BRANCH   1   6
ATOM      4  O   UNL     1      34.378  -3.174  14.177  0.00  0.00    +0.000 OA
ATOM      6  N   UNL     1      31.494  -2.180  12.421  0.00  0.00    +0.000 N 
ATOM      7  N   UNL     1      33.776  -2.543  13.095  0.00  0.00    +0.000 NA
ATOM     11  C   UNL     1      32.488  -2.698  13.323  0.00  0.00    +0.000 A 
ATOM     15  C   UNL     1      32.180  -3.389  14.484  0.00  0.00    +0.000 A 
ATOM     16  C   UNL     1      33.418  -3.673  14.997  0.00  0.00    +0.000 A 
ATOM     17  C   UNL     1      33.882  -4.376  16.199  0.00  0.00    +0.000 C 
ATOM     19  H   UNL     1      30.512  -2.392  12.637  0.00  0.00    +0.000 HD
ENDBRANCH   1   6
BRANCH   1   8
ATOM      8  C   UNL     1      30.445  -1.440  10.034  0.00  0.00    +0.000 A 
ATOM      9  C   UNL     1      29.330  -2.267  10.164  0.00  0.00    +0.000 A 
ATOM     10  C   UNL     1      30.354  -0.257   9.299  0.00  0.00    +0.000 A 
ATOM     12  C   UNL     1      28.123  -1.912   9.560  0.00  0.00    +0.000 A 
ATOM     13  C   UNL     1      29.148   0.098   8.696  0.00  0.00    +0.000 A 
ATOM     14  C   UNL     1      28.032  -0.729   8.827  0.00  0.00    +0.000 A 
BRANCH  14   5
ATOM      5  O   UNL     1      26.855  -0.383   8.239  0.00  0.00    +0.000 OA
ATOM     18  C   UNL     1      26.562  -0.972   6.974  0.00  0.00    +0.000 C 
ENDBRANCH  14   5
ENDBRANCH   1   8
TORSDOF 3
ENDMDL
MODEL 6
REMARK VINA RESULT:      -5.6      4.730      8.494
REMARK  Name = 694829
REMARK  5 active torsions:
REMARK  status: ('A' for Active; 'I' for Inactive)
REMARK    1  A    between atoms: S_1  and  N_6
REMARK    2  A    between atoms: S_1  and  C_8
REMARK    3  A    between atoms: O_5  and  C_14
REMARK    4  A    between atoms: O_5  and  C_18
REMARK    5  A    between atoms: C_16  and  C_17
REMARK                            x       y       z     vdW  Elec       q    Type
REMARK                         _______ _______ _______ _____ _____    ______ ____
ROOT
ATOM      1  S   UNL     1      31.047  -2.093  11.628  0.00  0.00    +0.000 S 
ATOM      2  O   UNL     1      31.293  -3.506  11.361  0.00  0.00    +0.000 OA
ATOM      3  O   UNL     1      30.682  -1.686  12.979  0.00  0.00    +0.000 OA
ENDROOT
BRANCH   1   6
ATOM      4  O   UNL     1      34.886  -1.510  13.610  0.00  0.00    +0.000 OA
ATOM      6  N   UNL     1      32.428  -1.203  11.111  0.00  0.00    +0.000 N 
ATOM      7  N   UNL     1      33.732  -1.964  12.984  0.00  0.00    +0.000 NA
ATOM     11  C   UNL     1      33.541  -1.093  12.015  0.00  0.00    +0.000 A 
ATOM     15  C   UNL     1      34.487  -0.083  11.943  0.00  0.00    +0.000 A 
ATOM     16  C   UNL     1      35.326  -0.389  12.981  0.00  0.00    +0.000 A 
ATOM     17  C   UNL     1      36.546   0.228  13.516  0.00  0.00    +0.000 C 
ATOM     19  H   UNL     1      32.313  -0.453  10.417  0.00  0.00    +0.000 HD
ENDBRANCH   1   6
BRANCH   1   8
ATOM      8  C   UNL     1      29.804  -1.554  10.526  0.00  0.00    +0.000 A 
ATOM      9  C   UNL     1      28.562  -2.186  10.513  0.00  0.00    +0.000 A 
ATOM     10  C   UNL     1      30.054  -0.489   9.660  0.00  0.00    +0.000 A 
ATOM     12  C   UNL     1      27.568  -1.756   9.632  0.00  0.00    +0.000 A 
ATOM     13  C   UNL     1      29.062  -0.058   8.780  0.00  0.00    +0.000 A 
ATOM     14  C   UNL     1      27.818  -0.691   8.766  0.00  0.00    +0.000 A 
BRANCH  14   5
ATOM      5  O   UNL     1      26.849  -0.271   7.908  0.00  0.00    +0.000 OA
ATOM     18  C   UNL     1      26.615  -1.070   6.750  0.00  0.00    +0.000 C 
ENDBRANCH  14   5
ENDBRANCH   1   8
TORSDOF 3
ENDMDL
MODEL 7
REMARK VINA RESULT:      -5.6      4.317      6.395
REMARK  Name = 694829
REMARK  5 active torsions:
REMARK  status: ('A' for Active; 'I' for Inactive)
REMARK    1  A    between atoms: S_1  and  N_6
REMARK    2  A    between atoms: S_1  and  C_8
REMARK    3  A    between atoms: O_5  and  C_14
REMARK    4  A    between atoms: O_5  and  C_18
REMARK    5  A    between atoms: C_16  and  C_17
REMARK                            x       y       z     vdW  Elec       q    Type
REMARK                         _______ _______ _______ _____ _____    ______ ____
ROOT
ATOM      1  S   UNL     1      30.909  -2.171  11.543  0.00  0.00    +0.000 S 
ATOM      2  O   UNL     1      31.966  -1.422  10.871  0.00  0.00    +0.000 OA
ATOM      3  O   UNL     1      30.114  -1.500  12.565  0.00  0.00    +0.000 OA
ENDROOT
BRANCH   1   6
ATOM      4  O   UNL     1      28.441  -0.123   8.589  0.00  0.00    +0.000 OA
ATOM      6  N   UNL     1      29.866  -2.824  10.338  0.00  0.00    +0.000 N 
ATOM      7  N   UNL     1      29.438  -0.649   9.401  0.00  0.00    +0.000 NA
ATOM     11  C   UNL     1      29.085  -1.909   9.550  0.00  0.00    +0.000 A 
ATOM     15  C   UNL     1      27.919  -2.270   8.893  0.00  0.00    +0.000 A 
ATOM     16  C   UNL     1      27.542  -1.098   8.294  0.00  0.00    +0.000 A 
ATOM     17  C   UNL     1      26.414  -0.713   7.436  0.00  0.00    +0.000 C 
ATOM     19  H   UNL     1      29.496  -3.776  10.454  0.00  0.00    +0.000 HD
ENDBRANCH   1   6
BRANCH   1   8
ATOM      8  C   UNL     1      31.632  -3.597  12.244  0.00  0.00    +0.000 A 
ATOM      9  C   UNL     1      31.754  -3.708  13.628  0.00  0.00    +0.000 A 
ATOM     10  C   UNL     1      32.088  -4.625  11.418  0.00  0.00    +0.000 A 
ATOM     12  C   UNL     1      32.333  -4.848  14.189  0.00  0.00    +0.000 A 
ATOM     13  C   UNL     1      32.665  -5.765  11.978  0.00  0.00    +0.000 A 
ATOM     14  C   UNL     1      32.788  -5.876  13.363  0.00  0.00    +0.000 A 
BRANCH  14   5
ATOM      5  O   UNL     1      33.351  -6.988  13.910  0.00  0.00    +0.000 OA
ATOM     18  C   UNL     1      33.145  -7.201  15.305  0.00  0.00    +0.000 C 
ENDBRANCH  14   5
ENDBRANCH   1   8
TORSDOF 3
ENDMDL
MODEL 8
REMARK VINA RESULT:      -5.5      4.221      9.214
REMARK  Name = 694829
REMARK  5 active torsions:
REMARK  status: ('A' for Active; 'I' for Inactive)
REMARK    1  A    between atoms: S_1  and  N_6
REMARK    2  A    between atoms: S_1  and  C_8
REMARK    3  A    between atoms: O_5  and  C_14
REMARK    4  A    between atoms: O_5  and  C_18
REMARK    5  A    between atoms: C_16  and  C_17
REMARK                            x       y       z     vdW  Elec       q    Type
REMARK                         _______ _______ _______ _____ _____    ______ ____
ROOT
ATOM      1  S   UNL     1      32.423  -0.697   9.841  0.00  0.00    +0.000 S 
ATOM      2  O   UNL     1      33.164  -1.537   8.906  0.00  0.00    +0.000 OA
ATOM      3  O   UNL     1      32.834  -0.669  11.239  0.00  0.00    +0.000 OA
ENDROOT
BRANCH   1   6
ATOM      4  O   UNL     1      35.590   2.298   9.737  0.00  0.00    +0.000 OA
ATOM      6  N   UNL     1      32.399   0.908   9.214  0.00  0.00    +0.000 N 
ATOM      7  N   UNL     1      34.755   1.195   9.614  0.00  0.00    +0.000 NA
ATOM     11  C   UNL     1      33.568   1.725   9.400  0.00  0.00    +0.000 A 
ATOM     15  C   UNL     1      33.545   3.110   9.369  0.00  0.00    +0.000 A 
ATOM     16  C   UNL     1      34.858   3.433   9.589  0.00  0.00    +0.000 A 
ATOM     17  C   UNL     1      35.588   4.703   9.689  0.00  0.00    +0.000 C 
ATOM     19  H   UNL     1      31.500   1.395   9.110  0.00  0.00    +0.000 HD
ENDBRANCH   1   6
BRANCH   1   8
ATOM      8  C   UNL     1      30.743  -1.168   9.761  0.00  0.00    +0.000 A 
ATOM      9  C   UNL     1      29.774  -0.236   9.395  0.00  0.00    +0.000 A 
ATOM     10  C   UNL     1      30.372  -2.479  10.065  0.00  0.00    +0.000 A 
ATOM     12  C   UNL     1      28.431  -0.612   9.333  0.00  0.00    +0.000 A 
ATOM     13  C   UNL     1      29.031  -2.856  10.001  0.00  0.00    +0.000 A 
ATOM     14  C   UNL     1      28.060  -1.923   9.635  0.00  0.00    +0.000 A 
BRANCH  14   5
ATOM      5  O   UNL     1      26.751  -2.290   9.573  0.00  0.00    +0.000 OA
ATOM     18  C   UNL     1      26.374  -3.174   8.520  0.00  0.00    +0.000 C 
ENDBRANCH  14   5
ENDBRANCH   1   8
TORSDOF 3
ENDMDL
MODEL 9
REMARK VINA RESULT:      -5.4      5.923      7.417
REMARK  Name = 694829
REMARK  5 active torsions:
REMARK  status: ('A' for Active; 'I' for Inactive)
REMARK    1  A    between atoms: S_1  and  N_6
REMARK    2  A    between atoms: S_1  and  C_8
REMARK    3  A    between atoms: O_5  and  C_14
REMARK    4  A    between atoms: O_5  and  C_18
REMARK    5  A    between atoms: C_16  and  C_17
REMARK                            x       y       z     vdW  Elec       q    Type
REMARK                         _______ _______ _______ _____ _____    ______ ____
ROOT
ATOM      1  S   UNL     1      33.244  -5.681  10.480  0.00  0.00    +0.000 S 
ATOM      2  O   UNL     1      34.558  -5.238  10.934  0.00  0.00    +0.000 OA
ATOM      3  O   UNL     1      33.091  -6.132   9.102  0.00  0.00    +0.000 OA
ENDROOT
BRANCH   1   6
ATOM      4  O   UNL     1      33.739 -10.006  10.249  0.00  0.00    +0.000 OA
ATOM      6  N   UNL     1      32.693  -6.910  11.553  0.00  0.00    +0.000 N 
ATOM      7  N   UNL     1      33.859  -8.625  10.333  0.00  0.00    +0.000 NA
ATOM     11  C   UNL     1      32.913  -8.282  11.182  0.00  0.00    +0.000 A 
ATOM     15  C   UNL     1      32.165  -9.337  11.679  0.00  0.00    +0.000 A 
ATOM     16  C   UNL     1      32.727 -10.418  11.055  0.00  0.00    +0.000 A 
ATOM     17  C   UNL     1      32.461 -11.862  11.090  0.00  0.00    +0.000 C 
ATOM     19  H   UNL     1      31.899  -6.715  12.177  0.00  0.00    +0.000 HD
ENDBRANCH   1   6
BRANCH   1   8
ATOM      8  C   UNL     1      32.116  -4.379  10.770  0.00  0.00    +0.000 A 
ATOM      9  C   UNL     1      32.155  -3.679  11.974  0.00  0.00    +0.000 A 
ATOM     10  C   UNL     1      31.176  -4.041   9.795  0.00  0.00    +0.000 A 
ATOM     12  C   UNL     1      31.253  -2.639  12.206  0.00  0.00    +0.000 A 
ATOM     13  C   UNL     1      30.276  -3.001  10.026  0.00  0.00    +0.000 A 
ATOM     14  C   UNL     1      30.314  -2.300  11.232  0.00  0.00    +0.000 A 
BRANCH  14   5
ATOM      5  O   UNL     1      29.436  -1.285  11.458  0.00  0.00    +0.000 OA
ATOM     18  C   UNL     1      28.794  -0.715  10.319  0.00  0.00    +0.000 C 
ENDBRANCH  14   5
ENDBRANCH   1   8
TORSDOF 3
ENDMDL
MODEL 10
REMARK VINA RESULT:      -5.3     18.996     19.900
REMARK  Name = 694829
REMARK  5 active torsions:
REMARK  status: ('A' for Active; 'I' for Inactive)
REMARK    1  A    between atoms: S_1  and  N_6
REMARK    2  A    between atoms: S_1  and  C_8
REMARK    3  A    between atoms: O_5  and  C_14
REMARK    4  A    between atoms: O_5  and  C_18
REMARK    5  A    between atoms: C_16  and  C_17
REMARK                            x       y       z     vdW  Elec       q    Type
REMARK                         _______ _______ _______ _____ _____    ______ ____
ROOT
ATOM      1  S   UNL     1      27.344   9.188  -5.327  0.00  0.00    +0.000 S 
ATOM      2  O   UNL     1      26.781   8.841  -4.026  0.00  0.00    +0.000 OA
ATOM      3  O   UNL     1      28.336   8.301  -5.922  0.00  0.00    +0.000 OA
ENDROOT
BRANCH   1   6
ATOM      4  O   UNL     1      24.057   6.514  -6.354  0.00  0.00    +0.000 OA
ATOM      6  N   UNL     1      26.041   9.420  -6.429  0.00  0.00    +0.000 N 
ATOM      7  N   UNL     1      24.998   7.354  -5.771  0.00  0.00    +0.000 NA
ATOM     11  C   UNL     1      25.139   8.322  -6.652  0.00  0.00    +0.000 A 
ATOM     15  C   UNL     1      24.358   8.194  -7.789  0.00  0.00    +0.000 A 
ATOM     16  C   UNL     1      23.684   7.025  -7.556  0.00  0.00    +0.000 A 
ATOM     17  C   UNL     1      22.686   6.259  -8.314  0.00  0.00    +0.000 C 
ATOM     19  H   UNL     1      26.140  10.106  -7.188  0.00  0.00    +0.000 HD
ENDBRANCH   1   6
BRANCH   1   8
ATOM      8  C   UNL     1      28.031  10.788  -5.197  0.00  0.00    +0.000 A 
ATOM      9  C   UNL     1      29.286  11.055  -5.742  0.00  0.00    +0.000 A 
ATOM     10  C   UNL     1      27.323  11.801  -4.548  0.00  0.00    +0.000 A 
ATOM     12  C   UNL     1      29.835  12.334  -5.637  0.00  0.00    +0.000 A 
ATOM     13  C   UNL     1      27.870  13.079  -4.444  0.00  0.00    +0.000 A 
ATOM     14  C   UNL     1      29.127  13.346  -4.989  0.00  0.00    +0.000 A 
BRANCH  14   5
ATOM      5  O   UNL     1      29.662  14.593  -4.889  0.00  0.00    +0.000 OA
ATOM     18  C   UNL     1      30.036  15.239  -6.103  0.00  0.00    +0.000 C 
ENDBRANCH  14   5
ENDBRANCH   1   8
TORSDOF 3
ENDMDL
