MODEL 1
REMARK VINA RESULT:      -9.1      0.000      0.000
REMARK  Name = 1181036
REMARK  5 active torsions:
REMARK  status: ('A' for Active; 'I' for Inactive)
REMARK    1  A    between atoms: S_1  and  N_7
REMARK    2  A    between atoms: S_1  and  C_19
REMARK    3  A    between atoms: N_6  and  C_16
REMARK    4  A    between atoms: C_9  and  C_15
REMARK    5  A    between atoms: C_24  and  C_25
REMARK                            x       y       z     vdW  Elec       q    Type
REMARK                         _______ _______ _______ _____ _____    ______ ____
ROOT
ATOM     16  C   UNL     1      26.411  -2.969   8.059  0.00  0.00    +0.000 A 
ATOM     17  C   UNL     1      27.229  -2.995   9.177  0.00  0.00    +0.000 A 
ATOM     18  C   UNL     1      26.445  -1.912   7.163  0.00  0.00    +0.000 A 
ATOM     19  C   UNL     1      28.154  -0.864   8.512  0.00  0.00    +0.000 A 
ATOM     20  C   UNL     1      28.107  -1.934   9.404  0.00  0.00    +0.000 A 
ATOM     21  C   UNL     1      27.323  -0.852   7.392  0.00  0.00    +0.000 A 
ENDROOT
BRANCH  16   6
ATOM      2  O   UNL     1      23.724  -3.579   9.274  0.00  0.00    +0.000 OA
ATOM      6  N   UNL     1      25.520  -4.043   7.827  0.00  0.00    +0.000 N 
ATOM     15  C   UNL     1      24.288  -4.265   8.428  0.00  0.00    +0.000 C 
ATOM     26  H   UNL     1      25.871  -4.742   7.177  0.00  0.00    +0.000 HD
BRANCH  15   9
ATOM      9  C   UNL     1      23.650  -5.521   7.907  0.00  0.00    +0.000 C 
ATOM     10  C   UNL     1      24.707  -6.575   7.571  0.00  0.00    +0.000 C 
ATOM     11  C   UNL     1      22.603  -6.030   8.900  0.00  0.00    +0.000 C 
ATOM     12  C   UNL     1      25.289  -7.268   8.802  0.00  0.00    +0.000 C 
ATOM     13  C   UNL     1      23.216  -6.712  10.122  0.00  0.00    +0.000 C 
ATOM     14  C   UNL     1      24.198  -7.807   9.720  0.00  0.00    +0.000 C 
ENDBRANCH  15   9
ENDBRANCH  16   6
BRANCH  19   1
ATOM      1  S   UNL     1      29.251   0.464   8.798  0.00  0.00    +0.000 S 
ATOM      3  O   UNL     1      28.607   1.379   9.733  0.00  0.00    +0.000 OA
ATOM      4  O   UNL     1      29.706   0.979   7.512  0.00  0.00    +0.000 OA
BRANCH   1   7
ATOM      5  O   UNL     1      33.521   1.324   8.596  0.00  0.00    +0.000 OA
ATOM      7  N   UNL     1      30.566  -0.296   9.612  0.00  0.00    +0.000 N 
ATOM      8  N   UNL     1      32.140   1.310   8.755  0.00  0.00    +0.000 NA
ATOM     22  C   UNL     1      31.901   0.128   9.284  0.00  0.00    +0.000 A 
ATOM     23  C   UNL     1      33.023  -0.655   9.494  0.00  0.00    +0.000 A 
ATOM     24  C   UNL     1      34.036   0.149   9.040  0.00  0.00    +0.000 A 
ATOM     25  C   UNL     1      35.492  -0.007   8.947  0.00  0.00    +0.000 C 
ATOM     27  H   UNL     1      30.453  -1.254   9.968  0.00  0.00    +0.000 HD
ENDBRANCH   1   7
ENDBRANCH  19   1
TORSDOF 4
ENDMDL
MODEL 2
REMARK VINA RESULT:      -8.8      1.970      2.175
REMARK  Name = 1181036
REMARK  5 active torsions:
REMARK  status: ('A' for Active; 'I' for Inactive)
REMARK    1  A    between atoms: S_1  and  N_7
REMARK    2  A    between atoms: S_1  and  C_19
REMARK    3  A    between atoms: N_6  and  C_16
REMARK    4  A    between atoms: C_9  and  C_15
REMARK    5  A    between atoms: C_24  and  C_25
REMARK                            x       y       z     vdW  Elec       q    Type
REMARK                         _______ _______ _______ _____ _____    ______ ____
ROOT
ATOM     16  C   UNL     1      26.193  -3.055   8.087  0.00  0.00    +0.000 A 
ATOM     17  C   UNL     1      26.534  -2.906   9.421  0.00  0.00    +0.000 A 
ATOM     18  C   UNL     1      26.640  -2.164   7.123  0.00  0.00    +0.000 A 
ATOM     19  C   UNL     1      27.801  -0.931   8.846  0.00  0.00    +0.000 A 
ATOM     20  C   UNL     1      27.344  -1.836   9.803  0.00  0.00    +0.000 A 
ATOM     21  C   UNL     1      27.450  -1.095   7.506  0.00  0.00    +0.000 A 
ENDROOT
BRANCH  16   6
ATOM      2  O   UNL     1      23.219  -3.447   8.346  0.00  0.00    +0.000 OA
ATOM      6  N   UNL     1      25.372  -4.139   7.698  0.00  0.00    +0.000 N 
ATOM     15  C   UNL     1      23.996  -4.255   7.850  0.00  0.00    +0.000 C 
ATOM     26  H   UNL     1      25.880  -4.930   7.310  0.00  0.00    +0.000 HD
BRANCH  15   9
ATOM      9  C   UNL     1      23.500  -5.564   7.306  0.00  0.00    +0.000 C 
ATOM     10  C   UNL     1      24.624  -6.600   7.259  0.00  0.00    +0.000 C 
ATOM     11  C   UNL     1      22.288  -6.042   8.109  0.00  0.00    +0.000 C 
ATOM     12  C   UNL     1      24.967  -7.190   8.626  0.00  0.00    +0.000 C 
ATOM     13  C   UNL     1      22.663  -6.620   9.473  0.00  0.00    +0.000 C 
ATOM     14  C   UNL     1      23.728  -7.704   9.350  0.00  0.00    +0.000 C 
ENDBRANCH  15   9
ENDBRANCH  16   6
BRANCH  19   1
ATOM      1  S   UNL     1      28.814   0.409   9.325  0.00  0.00    +0.000 S 
ATOM      3  O   UNL     1      27.940   1.529   9.655  0.00  0.00    +0.000 OA
ATOM      4  O   UNL     1      29.847   0.598   8.313  0.00  0.00    +0.000 OA
BRANCH   1   7
ATOM      5  O   UNL     1      31.758  -2.750   9.931  0.00  0.00    +0.000 OA
ATOM      7  N   UNL     1      29.534  -0.159  10.784  0.00  0.00    +0.000 N 
ATOM      8  N   UNL     1      31.018  -1.624   9.585  0.00  0.00    +0.000 NA
ATOM     22  C   UNL     1      30.414  -1.293  10.707  0.00  0.00    +0.000 A 
ATOM     23  C   UNL     1      30.695  -2.115  11.786  0.00  0.00    +0.000 A 
ATOM     24  C   UNL     1      31.557  -3.032  11.244  0.00  0.00    +0.000 A 
ATOM     25  C   UNL     1      32.269  -4.198  11.781  0.00  0.00    +0.000 C 
ATOM     27  H   UNL     1      29.054   0.002  11.679  0.00  0.00    +0.000 HD
ENDBRANCH   1   7
ENDBRANCH  19   1
TORSDOF 4
ENDMDL
MODEL 3
REMARK VINA RESULT:      -7.5      3.091      8.495
REMARK  Name = 1181036
REMARK  5 active torsions:
REMARK  status: ('A' for Active; 'I' for Inactive)
REMARK    1  A    between atoms: S_1  and  N_7
REMARK    2  A    between atoms: S_1  and  C_19
REMARK    3  A    between atoms: N_6  and  C_16
REMARK    4  A    between atoms: C_9  and  C_15
REMARK    5  A    between atoms: C_24  and  C_25
REMARK                            x       y       z     vdW  Elec       q    Type
REMARK                         _______ _______ _______ _____ _____    ______ ____
ROOT
ATOM     16  C   UNL     1      29.786  -1.607  10.488  0.00  0.00    +0.000 A 
ATOM     17  C   UNL     1      29.257  -2.835  10.126  0.00  0.00    +0.000 A 
ATOM     18  C   UNL     1      29.304  -0.425   9.948  0.00  0.00    +0.000 A 
ATOM     19  C   UNL     1      27.720  -1.702   8.645  0.00  0.00    +0.000 A 
ATOM     20  C   UNL     1      28.216  -2.882   9.198  0.00  0.00    +0.000 A 
ATOM     21  C   UNL     1      28.263  -0.473   9.020  0.00  0.00    +0.000 A 
ENDROOT
BRANCH  16   6
ATOM      2  O   UNL     1      32.681  -2.393  10.224  0.00  0.00    +0.000 OA
ATOM      6  N   UNL     1      30.841  -1.558  11.429  0.00  0.00    +0.000 N 
ATOM     15  C   UNL     1      32.163  -1.940  11.238  0.00  0.00    +0.000 C 
ATOM     26  H   UNL     1      30.560  -1.248  12.355  0.00  0.00    +0.000 HD
BRANCH  15   9
ATOM      9  C   UNL     1      32.972  -1.731  12.486  0.00  0.00    +0.000 C 
ATOM     10  C   UNL     1      32.107  -1.900  13.736  0.00  0.00    +0.000 C 
ATOM     11  C   UNL     1      34.193  -2.654  12.482  0.00  0.00    +0.000 C 
ATOM     12  C   UNL     1      31.796  -3.359  14.069  0.00  0.00    +0.000 C 
ATOM     13  C   UNL     1      33.848  -4.105  12.812  0.00  0.00    +0.000 C 
ATOM     14  C   UNL     1      33.057  -4.214  14.111  0.00  0.00    +0.000 C 
ENDBRANCH  15   9
ENDBRANCH  16   6
BRANCH  19   1
ATOM      1  S   UNL     1      26.418  -1.762   7.482  0.00  0.00    +0.000 S 
ATOM      3  O   UNL     1      26.828  -2.653   6.403  0.00  0.00    +0.000 OA
ATOM      4  O   UNL     1      26.023  -0.397   7.154  0.00  0.00    +0.000 OA
BRANCH   1   7
ATOM      5  O   UNL     1      24.888  -5.833   7.172  0.00  0.00    +0.000 OA
ATOM      7  N   UNL     1      25.154  -2.531   8.364  0.00  0.00    +0.000 N 
ATOM      8  N   UNL     1      25.614  -4.659   7.338  0.00  0.00    +0.000 NA
ATOM     22  C   UNL     1      24.784  -3.869   7.987  0.00  0.00    +0.000 A 
ATOM     23  C   UNL     1      23.549  -4.428   8.271  0.00  0.00    +0.000 A 
ATOM     24  C   UNL     1      23.659  -5.683   7.732  0.00  0.00    +0.000 A 
ATOM     25  C   UNL     1      22.755  -6.836   7.648  0.00  0.00    +0.000 C 
ATOM     27  H   UNL     1      24.432  -1.956   8.817  0.00  0.00    +0.000 HD
ENDBRANCH   1   7
ENDBRANCH  19   1
TORSDOF 4
ENDMDL
MODEL 4
REMARK VINA RESULT:      -7.5      5.751      7.933
REMARK  Name = 1181036
REMARK  5 active torsions:
REMARK  status: ('A' for Active; 'I' for Inactive)
REMARK    1  A    between atoms: S_1  and  N_7
REMARK    2  A    between atoms: S_1  and  C_19
REMARK    3  A    between atoms: N_6  and  C_16
REMARK    4  A    between atoms: C_9  and  C_15
REMARK    5  A    between atoms: C_24  and  C_25
REMARK                            x       y       z     vdW  Elec       q    Type
REMARK                         _______ _______ _______ _____ _____    ______ ____
ROOT
ATOM     16  C   UNL     1      30.966  -3.302  10.692  0.00  0.00    +0.000 A 
ATOM     17  C   UNL     1      31.417  -4.064   9.626  0.00  0.00    +0.000 A 
ATOM     18  C   UNL     1      31.658  -3.258  11.892  0.00  0.00    +0.000 A 
ATOM     19  C   UNL     1      33.302  -4.766  10.964  0.00  0.00    +0.000 A 
ATOM     20  C   UNL     1      32.593  -4.801   9.764  0.00  0.00    +0.000 A 
ATOM     21  C   UNL     1      32.835  -3.995  12.028  0.00  0.00    +0.000 A 
ENDROOT
BRANCH  16   6
ATOM      2  O   UNL     1      30.467  -0.639   9.380  0.00  0.00    +0.000 OA
ATOM      6  N   UNL     1      29.773  -2.555  10.554  0.00  0.00    +0.000 N 
ATOM     15  C   UNL     1      29.613  -1.323   9.933  0.00  0.00    +0.000 C 
ATOM     26  H   UNL     1      28.966  -2.969  11.015  0.00  0.00    +0.000 HD
BRANCH  15   9
ATOM      9  C   UNL     1      28.185  -0.863  10.000  0.00  0.00    +0.000 C 
ATOM     10  C   UNL     1      27.839   0.030   8.808  0.00  0.00    +0.000 C 
ATOM     11  C   UNL     1      27.251  -2.068  10.127  0.00  0.00    +0.000 C 
ATOM     12  C   UNL     1      27.629  -0.744   7.507  0.00  0.00    +0.000 C 
ATOM     13  C   UNL     1      27.065  -2.824   8.812  0.00  0.00    +0.000 C 
ATOM     14  C   UNL     1      26.641  -1.892   7.683  0.00  0.00    +0.000 C 
ENDBRANCH  15   9
ENDBRANCH  16   6
BRANCH  19   1
ATOM      1  S   UNL     1      34.773  -5.691  11.136  0.00  0.00    +0.000 S 
ATOM      3  O   UNL     1      34.974  -5.946  12.558  0.00  0.00    +0.000 OA
ATOM      4  O   UNL     1      35.832  -5.026  10.386  0.00  0.00    +0.000 OA
BRANCH   1   7
ATOM      5  O   UNL     1      32.179  -8.916  12.509  0.00  0.00    +0.000 OA
ATOM      7  N   UNL     1      34.378  -7.184  10.373  0.00  0.00    +0.000 N 
ATOM      8  N   UNL     1      32.775  -7.734  12.083  0.00  0.00    +0.000 NA
ATOM     22  C   UNL     1      33.563  -8.120  11.101  0.00  0.00    +0.000 A 
ATOM     23  C   UNL     1      33.540  -9.479  10.833  0.00  0.00    +0.000 A 
ATOM     24  C   UNL     1      32.642  -9.948  11.757  0.00  0.00    +0.000 A 
ATOM     25  C   UNL     1      32.112 -11.279  12.073  0.00  0.00    +0.000 C 
ATOM     27  H   UNL     1      35.009  -7.569   9.660  0.00  0.00    +0.000 HD
ENDBRANCH   1   7
ENDBRANCH  19   1
TORSDOF 4
ENDMDL
MODEL 5
REMARK VINA RESULT:      -7.3      3.958      6.988
REMARK  Name = 1181036
REMARK  5 active torsions:
REMARK  status: ('A' for Active; 'I' for Inactive)
REMARK    1  A    between atoms: S_1  and  N_7
REMARK    2  A    between atoms: S_1  and  C_19
REMARK    3  A    between atoms: N_6  and  C_16
REMARK    4  A    between atoms: C_9  and  C_15
REMARK    5  A    between atoms: C_24  and  C_25
REMARK                            x       y       z     vdW  Elec       q    Type
REMARK                         _______ _______ _______ _____ _____    ______ ____
ROOT
ATOM     16  C   UNL     1      32.391  -0.508   9.370  0.00  0.00    +0.000 A 
ATOM     17  C   UNL     1      33.044  -1.729   9.366  0.00  0.00    +0.000 A 
ATOM     18  C   UNL     1      33.042   0.661   9.009  0.00  0.00    +0.000 A 
ATOM     19  C   UNL     1      35.056  -0.617   8.624  0.00  0.00    +0.000 A 
ATOM     20  C   UNL     1      34.386  -1.784   8.990  0.00  0.00    +0.000 A 
ATOM     21  C   UNL     1      34.384   0.606   8.633  0.00  0.00    +0.000 A 
ENDROOT
BRANCH  16   6
ATOM      2  O   UNL     1      30.006   0.651   7.942  0.00  0.00    +0.000 OA
ATOM      6  N   UNL     1      31.029  -0.451   9.751  0.00  0.00    +0.000 N 
ATOM     15  C   UNL     1      29.974   0.104   9.038  0.00  0.00    +0.000 C 
ATOM     26  H   UNL     1      30.840  -0.824  10.677  0.00  0.00    +0.000 HD
BRANCH  15   9
ATOM      9  C   UNL     1      28.680  -0.039   9.788  0.00  0.00    +0.000 C 
ATOM     10  C   UNL     1      27.486  -0.002   8.834  0.00  0.00    +0.000 C 
ATOM     11  C   UNL     1      28.709  -1.302  10.651  0.00  0.00    +0.000 C 
ATOM     12  C   UNL     1      27.288  -1.302   8.055  0.00  0.00    +0.000 C 
ATOM     13  C   UNL     1      28.515  -2.585   9.843  0.00  0.00    +0.000 C 
ATOM     14  C   UNL     1      27.263  -2.517   8.975  0.00  0.00    +0.000 C 
ENDBRANCH  15   9
ENDBRANCH  16   6
BRANCH  19   1
ATOM      1  S   UNL     1      36.737  -0.685   8.156  0.00  0.00    +0.000 S 
ATOM      3  O   UNL     1      36.999  -2.022   7.636  0.00  0.00    +0.000 OA
ATOM      4  O   UNL     1      37.550  -0.189   9.261  0.00  0.00    +0.000 OA
BRANCH   1   7
ATOM      5  O   UNL     1      35.849  -1.305   3.932  0.00  0.00    +0.000 OA
ATOM      7  N   UNL     1      36.813   0.426   6.841  0.00  0.00    +0.000 N 
ATOM      8  N   UNL     1      35.866  -1.177   5.316  0.00  0.00    +0.000 NA
ATOM     22  C   UNL     1      36.556  -0.074   5.517  0.00  0.00    +0.000 A 
ATOM     23  C   UNL     1      37.005   0.552   4.366  0.00  0.00    +0.000 A 
ATOM     24  C   UNL     1      36.530  -0.270   3.377  0.00  0.00    +0.000 A 
ATOM     25  C   UNL     1      36.610  -0.247   1.912  0.00  0.00    +0.000 C 
ATOM     27  H   UNL     1      37.408   1.261   6.920  0.00  0.00    +0.000 HD
ENDBRANCH   1   7
ENDBRANCH  19   1
TORSDOF 4
ENDMDL
MODEL 6
REMARK VINA RESULT:      -7.1      4.128      6.884
REMARK  Name = 1181036
REMARK  5 active torsions:
REMARK  status: ('A' for Active; 'I' for Inactive)
REMARK    1  A    between atoms: S_1  and  N_7
REMARK    2  A    between atoms: S_1  and  C_19
REMARK    3  A    between atoms: N_6  and  C_16
REMARK    4  A    between atoms: C_9  and  C_15
REMARK    5  A    between atoms: C_24  and  C_25
REMARK                            x       y       z     vdW  Elec       q    Type
REMARK                         _______ _______ _______ _____ _____    ______ ____
ROOT
ATOM     16  C   UNL     1      32.025  -2.320   9.656  0.00  0.00    +0.000 A 
ATOM     17  C   UNL     1      32.146  -3.654   9.305  0.00  0.00    +0.000 A 
ATOM     18  C   UNL     1      33.124  -1.475   9.674  0.00  0.00    +0.000 A 
ATOM     19  C   UNL     1      34.516  -3.321   8.973  0.00  0.00    +0.000 A 
ATOM     20  C   UNL     1      33.401  -4.158   8.961  0.00  0.00    +0.000 A 
ATOM     21  C   UNL     1      34.378  -1.980   9.330  0.00  0.00    +0.000 A 
ENDROOT
BRANCH  16   6
ATOM      2  O   UNL     1      30.706   0.293   8.948  0.00  0.00    +0.000 OA
ATOM      6  N   UNL     1      30.753  -1.808  10.006  0.00  0.00    +0.000 N 
ATOM     15  C   UNL     1      30.205  -0.584   9.642  0.00  0.00    +0.000 C 
ATOM     26  H   UNL     1      30.222  -2.404  10.635  0.00  0.00    +0.000 HD
BRANCH  15   9
ATOM      9  C   UNL     1      28.828  -0.416  10.218  0.00  0.00    +0.000 C 
ATOM     10  C   UNL     1      27.906   0.305   9.234  0.00  0.00    +0.000 C 
ATOM     11  C   UNL     1      28.275  -1.771  10.664  0.00  0.00    +0.000 C 
ATOM     12  C   UNL     1      27.421  -0.586   8.090  0.00  0.00    +0.000 C 
ATOM     13  C   UNL     1      27.805  -2.639   9.499  0.00  0.00    +0.000 C 
ATOM     14  C   UNL     1      26.825  -1.892   8.601  0.00  0.00    +0.000 C 
ENDBRANCH  15   9
ENDBRANCH  16   6
BRANCH  19   1
ATOM      1  S   UNL     1      36.087  -3.953   8.544  0.00  0.00    +0.000 S 
ATOM      3  O   UNL     1      36.146  -5.339   8.993  0.00  0.00    +0.000 OA
ATOM      4  O   UNL     1      37.107  -3.020   9.008  0.00  0.00    +0.000 OA
BRANCH   1   7
ATOM      5  O   UNL     1      37.154  -0.788   5.741  0.00  0.00    +0.000 OA
ATOM      7  N   UNL     1      36.042  -3.948   6.822  0.00  0.00    +0.000 N 
ATOM      8  N   UNL     1      37.079  -1.779   6.713  0.00  0.00    +0.000 NA
ATOM     22  C   UNL     1      36.360  -2.722   6.140  0.00  0.00    +0.000 A 
ATOM     23  C   UNL     1      35.946  -2.438   4.850  0.00  0.00    +0.000 A 
ATOM     24  C   UNL     1      36.476  -1.192   4.636  0.00  0.00    +0.000 A 
ATOM     25  C   UNL     1      36.453  -0.259   3.503  0.00  0.00    +0.000 C 
ATOM     27  H   UNL     1      35.429  -4.611   6.331  0.00  0.00    +0.000 HD
ENDBRANCH   1   7
ENDBRANCH  19   1
TORSDOF 4
ENDMDL
MODEL 7
REMARK VINA RESULT:      -6.9      4.409      7.616
REMARK  Name = 1181036
REMARK  5 active torsions:
REMARK  status: ('A' for Active; 'I' for Inactive)
REMARK    1  A    between atoms: S_1  and  N_7
REMARK    2  A    between atoms: S_1  and  C_19
REMARK    3  A    between atoms: N_6  and  C_16
REMARK    4  A    between atoms: C_9  and  C_15
REMARK    5  A    between atoms: C_24  and  C_25
REMARK                            x       y       z     vdW  Elec       q    Type
REMARK                         _______ _______ _______ _____ _____    ______ ____
ROOT
ATOM     16  C   UNL     1      33.234  -0.018   9.314  0.00  0.00    +0.000 A 
ATOM     17  C   UNL     1      33.283   1.324   9.655  0.00  0.00    +0.000 A 
ATOM     18  C   UNL     1      34.082  -0.551   8.356  0.00  0.00    +0.000 A 
ATOM     19  C   UNL     1      35.067   1.634   8.056  0.00  0.00    +0.000 A 
ATOM     20  C   UNL     1      34.207   2.155   9.021  0.00  0.00    +0.000 A 
ATOM     21  C   UNL     1      35.005   0.281   7.722  0.00  0.00    +0.000 A 
ENDROOT
BRANCH  16   6
ATOM      2  O   UNL     1      30.233  -0.134   9.096  0.00  0.00    +0.000 OA
ATOM      6  N   UNL     1      32.298  -0.863   9.956  0.00  0.00    +0.000 N 
ATOM     15  C   UNL     1      30.917  -0.861   9.808  0.00  0.00    +0.000 C 
ATOM     26  H   UNL     1      32.708  -1.501  10.632  0.00  0.00    +0.000 HD
BRANCH  15   9
ATOM      9  C   UNL     1      30.280  -1.916  10.666  0.00  0.00    +0.000 C 
ATOM     10  C   UNL     1      29.136  -1.331  11.496  0.00  0.00    +0.000 C 
ATOM     11  C   UNL     1      29.840  -3.100   9.804  0.00  0.00    +0.000 C 
ATOM     12  C   UNL     1      27.862  -1.084  10.689  0.00  0.00    +0.000 C 
ATOM     13  C   UNL     1      28.568  -2.820   9.005  0.00  0.00    +0.000 C 
ATOM     14  C   UNL     1      27.441  -2.319   9.901  0.00  0.00    +0.000 C 
ENDBRANCH  15   9
ENDBRANCH  16   6
BRANCH  19   1
ATOM      1  S   UNL     1      36.222   2.676   7.261  0.00  0.00    +0.000 S 
ATOM      3  O   UNL     1      36.715   1.974   6.081  0.00  0.00    +0.000 OA
ATOM      4  O   UNL     1      37.183   3.148   8.251  0.00  0.00    +0.000 OA
BRANCH   1   7
ATOM      5  O   UNL     1      37.408   6.630   5.856  0.00  0.00    +0.000 OA
ATOM      7  N   UNL     1      35.246   3.994   6.732  0.00  0.00    +0.000 N 
ATOM      8  N   UNL     1      37.175   5.279   6.086  0.00  0.00    +0.000 NA
ATOM     22  C   UNL     1      35.900   5.234   6.410  0.00  0.00    +0.000 A 
ATOM     23  C   UNL     1      35.255   6.460   6.414  0.00  0.00    +0.000 A 
ATOM     24  C   UNL     1      36.257   7.323   6.054  0.00  0.00    +0.000 A 
ATOM     25  C   UNL     1      36.322   8.775   5.851  0.00  0.00    +0.000 C 
ATOM     27  H   UNL     1      34.264   4.047   7.031  0.00  0.00    +0.000 HD
ENDBRANCH   1   7
ENDBRANCH  19   1
TORSDOF 4
ENDMDL
MODEL 8
REMARK VINA RESULT:      -6.8     18.136     20.163
REMARK  Name = 1181036
REMARK  5 active torsions:
REMARK  status: ('A' for Active; 'I' for Inactive)
REMARK    1  A    between atoms: S_1  and  N_7
REMARK    2  A    between atoms: S_1  and  C_19
REMARK    3  A    between atoms: N_6  and  C_16
REMARK    4  A    between atoms: C_9  and  C_15
REMARK    5  A    between atoms: C_24  and  C_25
REMARK                            x       y       z     vdW  Elec       q    Type
REMARK                         _______ _______ _______ _____ _____    ______ ____
ROOT
ATOM     16  C   UNL     1      19.388 -13.262  23.155  0.00  0.00    +0.000 A 
ATOM     17  C   UNL     1      19.681 -12.582  21.984  0.00  0.00    +0.000 A 
ATOM     18  C   UNL     1      19.347 -12.612  24.378  0.00  0.00    +0.000 A 
ATOM     19  C   UNL     1      19.904 -10.543  23.261  0.00  0.00    +0.000 A 
ATOM     20  C   UNL     1      19.941 -11.212  22.038  0.00  0.00    +0.000 A 
ATOM     21  C   UNL     1      19.607 -11.242  24.431  0.00  0.00    +0.000 A 
ENDROOT
BRANCH  16   6
ATOM      2  O   UNL     1      17.237 -14.792  21.704  0.00  0.00    +0.000 OA
ATOM      6  N   UNL     1      19.124 -14.651  23.102  0.00  0.00    +0.000 N 
ATOM     15  C   UNL     1      18.107 -15.293  22.408  0.00  0.00    +0.000 C 
ATOM     26  H   UNL     1      19.737 -15.214  23.686  0.00  0.00    +0.000 HD
BRANCH  15   9
ATOM      9  C   UNL     1      18.170 -16.781  22.608  0.00  0.00    +0.000 C 
ATOM     10  C   UNL     1      17.249 -17.506  21.626  0.00  0.00    +0.000 C 
ATOM     11  C   UNL     1      19.619 -17.261  22.526  0.00  0.00    +0.000 C 
ATOM     12  C   UNL     1      17.810 -17.578  20.206  0.00  0.00    +0.000 C 
ATOM     13  C   UNL     1      20.153 -17.317  21.095  0.00  0.00    +0.000 C 
ATOM     14  C   UNL     1      19.234 -18.123  20.184  0.00  0.00    +0.000 C 
ENDBRANCH  15   9
ENDBRANCH  16   6
BRANCH  19   1
ATOM      1  S   UNL     1      20.231  -8.829  23.328  0.00  0.00    +0.000 S 
ATOM      3  O   UNL     1      21.540  -8.602  22.728  0.00  0.00    +0.000 OA
ATOM      4  O   UNL     1      19.990  -8.361  24.689  0.00  0.00    +0.000 OA
BRANCH   1   7
ATOM      5  O   UNL     1      15.883  -8.921  23.643  0.00  0.00    +0.000 OA
ATOM      7  N   UNL     1      19.037  -8.170  22.274  0.00  0.00    +0.000 N 
ATOM      8  N   UNL     1      17.256  -8.753  23.783  0.00  0.00    +0.000 NA
ATOM     22  C   UNL     1      17.654  -8.433  22.569  0.00  0.00    +0.000 A 
ATOM     23  C   UNL     1      16.647  -8.372  21.621  0.00  0.00    +0.000 A 
ATOM     24  C   UNL     1      15.532  -8.691  22.351  0.00  0.00    +0.000 A 
ATOM     25  C   UNL     1      14.107  -8.824  22.025  0.00  0.00    +0.000 C 
ATOM     27  H   UNL     1      19.279  -7.984  21.292  0.00  0.00    +0.000 HD
ENDBRANCH   1   7
ENDBRANCH  19   1
TORSDOF 4
ENDMDL
MODEL 9
REMARK VINA RESULT:      -6.8      3.994      7.245
REMARK  Name = 1181036
REMARK  5 active torsions:
REMARK  status: ('A' for Active; 'I' for Inactive)
REMARK    1  A    between atoms: S_1  and  N_7
REMARK    2  A    between atoms: S_1  and  C_19
REMARK    3  A    between atoms: N_6  and  C_16
REMARK    4  A    between atoms: C_9  and  C_15
REMARK    5  A    between atoms: C_24  and  C_25
REMARK                            x       y       z     vdW  Elec       q    Type
REMARK                         _______ _______ _______ _____ _____    ______ ____
ROOT
ATOM     16  C   UNL     1      32.401   0.162   9.130  0.00  0.00    +0.000 A 
ATOM     17  C   UNL     1      33.306  -0.880   9.009  0.00  0.00    +0.000 A 
ATOM     18  C   UNL     1      32.734   1.455   8.760  0.00  0.00    +0.000 A 
ATOM     19  C   UNL     1      34.931   0.673   8.125  0.00  0.00    +0.000 A 
ATOM     20  C   UNL     1      34.580  -0.622   8.502  0.00  0.00    +0.000 A 
ATOM     21  C   UNL     1      34.008   1.712   8.253  0.00  0.00    +0.000 A 
ENDROOT
BRANCH  16   6
ATOM      2  O   UNL     1      29.683   0.649   7.928  0.00  0.00    +0.000 OA
ATOM      6  N   UNL     1      31.108  -0.099   9.644  0.00  0.00    +0.000 N 
ATOM     15  C   UNL     1      29.888   0.154   9.031  0.00  0.00    +0.000 C 
ATOM     26  H   UNL     1      31.103  -0.469  10.591  0.00  0.00    +0.000 HD
BRANCH  15   9
ATOM      9  C   UNL     1      28.744  -0.269   9.908  0.00  0.00    +0.000 C 
ATOM     10  C   UNL     1      27.459  -0.430   9.095  0.00  0.00    +0.000 C 
ATOM     11  C   UNL     1      29.116  -1.534  10.684  0.00  0.00    +0.000 C 
ATOM     12  C   UNL     1      27.420  -1.712   8.264  0.00  0.00    +0.000 C 
ATOM     13  C   UNL     1      29.074  -2.798   9.825  0.00  0.00    +0.000 C 
ATOM     14  C   UNL     1      27.738  -2.943   9.105  0.00  0.00    +0.000 C 
ENDBRANCH  15   9
ENDBRANCH  16   6
BRANCH  19   1
ATOM      1  S   UNL     1      36.526   0.997   7.492  0.00  0.00    +0.000 S 
ATOM      3  O   UNL     1      36.749   0.096   6.367  0.00  0.00    +0.000 OA
ATOM      4  O   UNL     1      37.477   0.988   8.598  0.00  0.00    +0.000 OA
BRANCH   1   7
ATOM      5  O   UNL     1      39.584   3.667   5.902  0.00  0.00    +0.000 OA
ATOM      7  N   UNL     1      36.375   2.599   6.876  0.00  0.00    +0.000 N 
ATOM      8  N   UNL     1      38.684   2.651   6.199  0.00  0.00    +0.000 NA
ATOM     22  C   UNL     1      37.576   3.295   6.501  0.00  0.00    +0.000 A 
ATOM     23  C   UNL     1      37.665   4.675   6.428  0.00  0.00    +0.000 A 
ATOM     24  C   UNL     1      38.966   4.869   6.042  0.00  0.00    +0.000 A 
ATOM     25  C   UNL     1      39.777   6.060   5.763  0.00  0.00    +0.000 C 
ATOM     27  H   UNL     1      35.568   3.172   7.153  0.00  0.00    +0.000 HD
ENDBRANCH   1   7
ENDBRANCH  19   1
TORSDOF 4
ENDMDL
MODEL 10
REMARK VINA RESULT:      -6.6     15.864     17.694
REMARK  Name = 1181036
REMARK  5 active torsions:
REMARK  status: ('A' for Active; 'I' for Inactive)
REMARK    1  A    between atoms: S_1  and  N_7
REMARK    2  A    between atoms: S_1  and  C_19
REMARK    3  A    between atoms: N_6  and  C_16
REMARK    4  A    between atoms: C_9  and  C_15
REMARK    5  A    between atoms: C_24  and  C_25
REMARK                            x       y       z     vdW  Elec       q    Type
REMARK                         _______ _______ _______ _____ _____    ______ ____
ROOT
ATOM     16  C   UNL     1      19.306  -9.308  21.397  0.00  0.00    +0.000 A 
ATOM     17  C   UNL     1      19.754  -9.503  20.101  0.00  0.00    +0.000 A 
ATOM     18  C   UNL     1      20.053  -9.720  22.489  0.00  0.00    +0.000 A 
ATOM     19  C   UNL     1      21.749 -10.545  20.979  0.00  0.00    +0.000 A 
ATOM     20  C   UNL     1      20.985 -10.126  19.891  0.00  0.00    +0.000 A 
ATOM     21  C   UNL     1      21.283 -10.342  22.279  0.00  0.00    +0.000 A 
ENDROOT
BRANCH  16   6
ATOM      2  O   UNL     1      16.526 -10.460  21.524  0.00  0.00    +0.000 OA
ATOM      6  N   UNL     1      18.058  -8.676  21.611  0.00  0.00    +0.000 N 
ATOM     15  C   UNL     1      16.805  -9.273  21.657  0.00  0.00    +0.000 C 
ATOM     26  H   UNL     1      18.111  -7.664  21.689  0.00  0.00    +0.000 HD
BRANCH  15   9
ATOM      9  C   UNL     1      15.729  -8.255  21.907  0.00  0.00    +0.000 C 
ATOM     10  C   UNL     1      14.342  -8.898  21.857  0.00  0.00    +0.000 C 
ATOM     11  C   UNL     1      15.995  -7.521  23.222  0.00  0.00    +0.000 C 
ATOM     12  C   UNL     1      14.001  -9.705  23.109  0.00  0.00    +0.000 C 
ATOM     13  C   UNL     1      15.650  -8.355  24.455  0.00  0.00    +0.000 C 
ATOM     14  C   UNL     1      14.227  -8.899  24.384  0.00  0.00    +0.000 C 
ENDBRANCH  15   9
ENDBRANCH  16   6
BRANCH  19   1
ATOM      1  S   UNL     1      23.288 -11.327  20.716  0.00  0.00    +0.000 S 
ATOM      3  O   UNL     1      23.911 -10.702  19.555  0.00  0.00    +0.000 OA
ATOM      4  O   UNL     1      23.083 -12.771  20.712  0.00  0.00    +0.000 OA
BRANCH   1   7
ATOM      5  O   UNL     1      27.344 -12.419  21.885  0.00  0.00    +0.000 OA
ATOM      7  N   UNL     1      24.188 -10.878  22.115  0.00  0.00    +0.000 N 
ATOM      8  N   UNL     1      26.175 -11.958  21.292  0.00  0.00    +0.000 NA
ATOM     22  C   UNL     1      25.487 -11.466  22.302  0.00  0.00    +0.000 A 
ATOM     23  C   UNL     1      26.111 -11.563  23.535  0.00  0.00    +0.000 A 
ATOM     24  C   UNL     1      27.295 -12.179  23.221  0.00  0.00    +0.000 A 
ATOM     25  C   UNL     1      28.458 -12.604  24.008  0.00  0.00    +0.000 C 
ATOM     27  H   UNL     1      23.689 -10.569  22.959  0.00  0.00    +0.000 HD
ENDBRANCH   1   7
ENDBRANCH  19   1
TORSDOF 4
ENDMDL
