MODEL 1
REMARK VINA RESULT:      -8.4      0.000      0.000
REMARK  Name = 678193
REMARK  9 active torsions:
REMARK  status: ('A' for Active; 'I' for Inactive)
REMARK    1  A    between atoms: S_1  and  N_6
REMARK    2  A    between atoms: S_1  and  C_9
REMARK    3  A    between atoms: N_6  and  C_12
REMARK    4  A    between atoms: N_7  and  C_11
REMARK    5  A    between atoms: C_10  and  C_16
REMARK    6  A    between atoms: C_10  and  C_19
REMARK    7  A    between atoms: C_10  and  C_20
REMARK    8  A    between atoms: C_15  and  C_22
REMARK    9  A    between atoms: C_21  and  C_23
REMARK                            x       y       z     vdW  Elec       q    Type
REMARK                         _______ _______ _______ _____ _____    ______ ____
ROOT
ATOM      9  C   UNL     1      27.723  -0.890   8.772  0.00  0.00    +0.000 A 
ATOM     11  C   UNL     1      25.927  -2.843   7.977  0.00  0.00    +0.000 A 
ATOM     13  C   UNL     1      27.307  -1.866   9.678  0.00  0.00    +0.000 A 
ATOM     14  C   UNL     1      27.233  -0.898   7.465  0.00  0.00    +0.000 A 
ATOM     17  C   UNL     1      26.404  -2.850   9.278  0.00  0.00    +0.000 A 
ATOM     18  C   UNL     1      26.329  -1.882   7.065  0.00  0.00    +0.000 A 
ENDROOT
BRANCH  11   7
ATOM      5  O   UNL     1      23.220  -3.543   9.060  0.00  0.00    +0.000 OA
ATOM      7  N   UNL     1      25.010  -3.842   7.572  0.00  0.00    +0.000 N 
ATOM     16  C   UNL     1      23.761  -4.121   8.121  0.00  0.00    +0.000 C 
ATOM     25  H   UNL     1      25.313  -4.409   6.784  0.00  0.00    +0.000 HD
BRANCH  16  10
ATOM     10  C   UNL     1      23.077  -5.283   7.395  0.00  0.00    +0.000 C 
ATOM     19  C   UNL     1      22.698  -6.398   8.368  0.00  0.00    +0.000 C 
ATOM     20  C   UNL     1      21.839  -4.782   6.653  0.00  0.00    +0.000 C 
ENDBRANCH  16  10
ENDBRANCH  11   7
BRANCH   9   1
ATOM      1  S   UNL     1      28.854   0.342   9.273  0.00  0.00    +0.000 S 
ATOM      3  O   UNL     1      28.098   1.389   9.950  0.00  0.00    +0.000 OA
ATOM      4  O   UNL     1      29.687   0.703   8.132  0.00  0.00    +0.000 OA
BRANCH   1   6
ATOM      6  N   UNL     1      29.810  -0.475  10.451  0.00  0.00    +0.000 N 
ATOM     24  H   UNL     1      29.414  -0.783  11.347  0.00  0.00    +0.000 HD
BRANCH   6  12
ATOM      2  O   UNL     1      32.191  -0.264   9.774  0.00  0.00    +0.000 OA
ATOM      8  N   UNL     1      33.238  -1.098   9.401  0.00  0.00    +0.000 NA
ATOM     12  C   UNL     1      31.080  -1.010  10.039  0.00  0.00    +0.000 A 
ATOM     15  C   UNL     1      31.381  -2.340   9.845  0.00  0.00    +0.000 A 
ATOM     21  C   UNL     1      32.731  -2.334   9.451  0.00  0.00    +0.000 A 
ATOM     22  C   UNL     1      30.491  -3.501  10.012  0.00  0.00    +0.000 C 
ATOM     23  C   UNL     1      33.583  -3.485   9.110  0.00  0.00    +0.000 C 
ENDBRANCH   6  12
ENDBRANCH   1   6
ENDBRANCH   9   1
TORSDOF 5
ENDMDL
MODEL 2
REMARK VINA RESULT:      -7.3      1.720      2.313
REMARK  Name = 678193
REMARK  9 active torsions:
REMARK  status: ('A' for Active; 'I' for Inactive)
REMARK    1  A    between atoms: S_1  and  N_6
REMARK    2  A    between atoms: S_1  and  C_9
REMARK    3  A    between atoms: N_6  and  C_12
REMARK    4  A    between atoms: N_7  and  C_11
REMARK    5  A    between atoms: C_10  and  C_16
REMARK    6  A    between atoms: C_10  and  C_19
REMARK    7  A    between atoms: C_10  and  C_20
REMARK    8  A    between atoms: C_15  and  C_22
REMARK    9  A    between atoms: C_21  and  C_23
REMARK                            x       y       z     vdW  Elec       q    Type
REMARK                         _______ _______ _______ _____ _____    ______ ____
ROOT
ATOM      9  C   UNL     1      27.996  -1.360   8.699  0.00  0.00    +0.000 A 
ATOM     11  C   UNL     1      25.981  -3.047   7.826  0.00  0.00    +0.000 A 
ATOM     13  C   UNL     1      27.115  -0.937   7.703  0.00  0.00    +0.000 A 
ATOM     14  C   UNL     1      27.862  -2.633   9.254  0.00  0.00    +0.000 A 
ATOM     17  C   UNL     1      26.100  -1.787   7.264  0.00  0.00    +0.000 A 
ATOM     18  C   UNL     1      26.847  -3.482   8.814  0.00  0.00    +0.000 A 
ENDROOT
BRANCH  11   7
ATOM      5  O   UNL     1      23.228  -3.506   8.921  0.00  0.00    +0.000 OA
ATOM      7  N   UNL     1      24.950  -3.908   7.379  0.00  0.00    +0.000 N 
ATOM     16  C   UNL     1      23.686  -4.080   7.936  0.00  0.00    +0.000 C 
ATOM     25  H   UNL     1      25.177  -4.454   6.552  0.00  0.00    +0.000 HD
BRANCH  16  10
ATOM     10  C   UNL     1      22.864  -5.109   7.154  0.00  0.00    +0.000 C 
ATOM     19  C   UNL     1      22.520  -6.318   8.022  0.00  0.00    +0.000 C 
ATOM     20  C   UNL     1      21.590  -4.462   6.615  0.00  0.00    +0.000 C 
ENDBRANCH  16  10
ENDBRANCH  11   7
BRANCH   9   1
ATOM      1  S   UNL     1      29.268  -0.297   9.248  0.00  0.00    +0.000 S 
ATOM      3  O   UNL     1      28.820   0.327  10.487  0.00  0.00    +0.000 OA
ATOM      4  O   UNL     1      29.676   0.556   8.139  0.00  0.00    +0.000 OA
BRANCH   1   6
ATOM      6  N   UNL     1      30.542  -1.393   9.632  0.00  0.00    +0.000 N 
ATOM     24  H   UNL     1      31.160  -1.775   8.908  0.00  0.00    +0.000 HD
BRANCH   6  12
ATOM      2  O   UNL     1      30.098  -1.840  12.036  0.00  0.00    +0.000 OA
ATOM      8  N   UNL     1      30.807  -1.867  13.231  0.00  0.00    +0.000 NA
ATOM     12  C   UNL     1      30.937  -1.514  11.010  0.00  0.00    +0.000 A 
ATOM     15  C   UNL     1      32.204  -1.324  11.516  0.00  0.00    +0.000 A 
ATOM     21  C   UNL     1      32.063  -1.557  12.895  0.00  0.00    +0.000 A 
ATOM     22  C   UNL     1      33.426  -0.962  10.778  0.00  0.00    +0.000 C 
ATOM     23  C   UNL     1      33.100  -1.493  13.938  0.00  0.00    +0.000 C 
ENDBRANCH   6  12
ENDBRANCH   1   6
ENDBRANCH   9   1
TORSDOF 5
ENDMDL
MODEL 3
REMARK VINA RESULT:      -7.0      3.858      7.657
REMARK  Name = 678193
REMARK  9 active torsions:
REMARK  status: ('A' for Active; 'I' for Inactive)
REMARK    1  A    between atoms: S_1  and  N_6
REMARK    2  A    between atoms: S_1  and  C_9
REMARK    3  A    between atoms: N_6  and  C_12
REMARK    4  A    between atoms: N_7  and  C_11
REMARK    5  A    between atoms: C_10  and  C_16
REMARK    6  A    between atoms: C_10  and  C_19
REMARK    7  A    between atoms: C_10  and  C_20
REMARK    8  A    between atoms: C_15  and  C_22
REMARK    9  A    between atoms: C_21  and  C_23
REMARK                            x       y       z     vdW  Elec       q    Type
REMARK                         _______ _______ _______ _____ _____    ______ ____
ROOT
ATOM      9  C   UNL     1      31.669  -3.244  11.415  0.00  0.00    +0.000 A 
ATOM     11  C   UNL     1      32.326  -5.928  11.231  0.00  0.00    +0.000 A 
ATOM     13  C   UNL     1      31.721  -3.865  10.167  0.00  0.00    +0.000 A 
ATOM     14  C   UNL     1      31.949  -3.975  12.570  0.00  0.00    +0.000 A 
ATOM     17  C   UNL     1      32.051  -5.217  10.075  0.00  0.00    +0.000 A 
ATOM     18  C   UNL     1      32.280  -5.327  12.477  0.00  0.00    +0.000 A 
ENDROOT
BRANCH  11   7
ATOM      5  O   UNL     1      34.963  -7.246  10.681  0.00  0.00    +0.000 OA
ATOM      7  N   UNL     1      32.662  -7.300  11.136  0.00  0.00    +0.000 N 
ATOM     16  C   UNL     1      33.913  -7.853  10.872  0.00  0.00    +0.000 C 
ATOM     25  H   UNL     1      31.887  -7.942  11.283  0.00  0.00    +0.000 HD
BRANCH  16  10
ATOM     10  C   UNL     1      33.856  -9.383  10.852  0.00  0.00    +0.000 C 
ATOM     19  C   UNL     1      35.037  -9.990  11.607  0.00  0.00    +0.000 C 
ATOM     20  C   UNL     1      32.537  -9.866  11.452  0.00  0.00    +0.000 C 
ENDBRANCH  16  10
ENDBRANCH  11   7
BRANCH   9   1
ATOM      1  S   UNL     1      31.257  -1.552  11.532  0.00  0.00    +0.000 S 
ATOM      3  O   UNL     1      31.645  -0.913  10.280  0.00  0.00    +0.000 OA
ATOM      4  O   UNL     1      31.788  -1.026  12.783  0.00  0.00    +0.000 OA
BRANCH   1   6
ATOM      6  N   UNL     1      29.535  -1.583  11.604  0.00  0.00    +0.000 N 
ATOM     24  H   UNL     1      29.036  -1.789  12.477  0.00  0.00    +0.000 HD
BRANCH   6  12
ATOM      2  O   UNL     1      28.624   0.339  10.321  0.00  0.00    +0.000 OA
ATOM      8  N   UNL     1      27.868   0.553   9.175  0.00  0.00    +0.000 NA
ATOM     12  C   UNL     1      28.802  -1.000  10.513  0.00  0.00    +0.000 A 
ATOM     15  C   UNL     1      28.166  -1.681   9.499  0.00  0.00    +0.000 A 
ATOM     21  C   UNL     1      27.606  -0.669   8.701  0.00  0.00    +0.000 A 
ATOM     22  C   UNL     1      28.092  -3.139   9.299  0.00  0.00    +0.000 C 
ATOM     23  C   UNL     1      26.809  -0.817   7.472  0.00  0.00    +0.000 C 
ENDBRANCH   6  12
ENDBRANCH   1   6
ENDBRANCH   9   1
TORSDOF 5
ENDMDL
MODEL 4
REMARK VINA RESULT:      -7.0      4.458      6.195
REMARK  Name = 678193
REMARK  9 active torsions:
REMARK  status: ('A' for Active; 'I' for Inactive)
REMARK    1  A    between atoms: S_1  and  N_6
REMARK    2  A    between atoms: S_1  and  C_9
REMARK    3  A    between atoms: N_6  and  C_12
REMARK    4  A    between atoms: N_7  and  C_11
REMARK    5  A    between atoms: C_10  and  C_16
REMARK    6  A    between atoms: C_10  and  C_19
REMARK    7  A    between atoms: C_10  and  C_20
REMARK    8  A    between atoms: C_15  and  C_22
REMARK    9  A    between atoms: C_21  and  C_23
REMARK                            x       y       z     vdW  Elec       q    Type
REMARK                         _______ _______ _______ _____ _____    ______ ____
ROOT
ATOM      9  C   UNL     1      31.619  -2.536  12.182  0.00  0.00    +0.000 A 
ATOM     11  C   UNL     1      29.479  -2.426  10.427  0.00  0.00    +0.000 A 
ATOM     13  C   UNL     1      30.549  -1.679  12.440  0.00  0.00    +0.000 A 
ATOM     14  C   UNL     1      31.611  -3.337  11.039  0.00  0.00    +0.000 A 
ATOM     17  C   UNL     1      29.471  -1.625  11.557  0.00  0.00    +0.000 A 
ATOM     18  C   UNL     1      30.534  -3.281  10.156  0.00  0.00    +0.000 A 
ENDROOT
BRANCH  11   7
ATOM      5  O   UNL     1      28.140  -0.067   9.150  0.00  0.00    +0.000 OA
ATOM      7  N   UNL     1      28.385  -2.370   9.531  0.00  0.00    +0.000 N 
ATOM     16  C   UNL     1      27.803  -1.235   8.972  0.00  0.00    +0.000 C 
ATOM     25  H   UNL     1      27.993  -3.272   9.275  0.00  0.00    +0.000 HD
BRANCH  16  10
ATOM     10  C   UNL     1      26.636  -1.601   8.050  0.00  0.00    +0.000 C 
ATOM     19  C   UNL     1      26.947  -1.246   6.597  0.00  0.00    +0.000 C 
ATOM     20  C   UNL     1      26.315  -3.089   8.176  0.00  0.00    +0.000 C 
ENDBRANCH  16  10
ENDBRANCH  11   7
BRANCH   9   1
ATOM      1  S   UNL     1      32.969  -2.604  13.287  0.00  0.00    +0.000 S 
ATOM      3  O   UNL     1      33.918  -3.582  12.767  0.00  0.00    +0.000 OA
ATOM      4  O   UNL     1      32.456  -2.773  14.641  0.00  0.00    +0.000 OA
BRANCH   1   6
ATOM      6  N   UNL     1      33.672  -1.039  13.127  0.00  0.00    +0.000 N 
ATOM     24  H   UNL     1      33.746  -0.572  12.215  0.00  0.00    +0.000 HD
BRANCH   6  12
ATOM      2  O   UNL     1      32.873   0.445  14.952  0.00  0.00    +0.000 OA
ATOM      8  N   UNL     1      33.396   1.087  16.067  0.00  0.00    +0.000 NA
ATOM     12  C   UNL     1      33.858  -0.256  14.319  0.00  0.00    +0.000 A 
ATOM     15  C   UNL     1      35.038  -0.082  15.007  0.00  0.00    +0.000 A 
ATOM     21  C   UNL     1      34.691   0.757  16.080  0.00  0.00    +0.000 A 
ATOM     22  C   UNL     1      36.360  -0.650  14.691  0.00  0.00    +0.000 C 
ATOM     23  C   UNL     1      35.564   1.275  17.147  0.00  0.00    +0.000 C 
ENDBRANCH   6  12
ENDBRANCH   1   6
ENDBRANCH   9   1
TORSDOF 5
ENDMDL
MODEL 5
REMARK VINA RESULT:      -6.8     17.690     19.655
REMARK  Name = 678193
REMARK  9 active torsions:
REMARK  status: ('A' for Active; 'I' for Inactive)
REMARK    1  A    between atoms: S_1  and  N_6
REMARK    2  A    between atoms: S_1  and  C_9
REMARK    3  A    between atoms: N_6  and  C_12
REMARK    4  A    between atoms: N_7  and  C_11
REMARK    5  A    between atoms: C_10  and  C_16
REMARK    6  A    between atoms: C_10  and  C_19
REMARK    7  A    between atoms: C_10  and  C_20
REMARK    8  A    between atoms: C_15  and  C_22
REMARK    9  A    between atoms: C_21  and  C_23
REMARK                            x       y       z     vdW  Elec       q    Type
REMARK                         _______ _______ _______ _____ _____    ______ ____
ROOT
ATOM      9  C   UNL     1      19.681 -10.567  22.840  0.00  0.00    +0.000 A 
ATOM     11  C   UNL     1      19.474 -13.285  22.349  0.00  0.00    +0.000 A 
ATOM     13  C   UNL     1      19.079 -11.402  23.782  0.00  0.00    +0.000 A 
ATOM     14  C   UNL     1      20.178 -11.102  21.651  0.00  0.00    +0.000 A 
ATOM     17  C   UNL     1      18.976 -12.771  23.535  0.00  0.00    +0.000 A 
ATOM     18  C   UNL     1      20.074 -12.470  21.404  0.00  0.00    +0.000 A 
ENDROOT
BRANCH  11   7
ATOM      5  O   UNL     1      17.123 -14.922  21.466  0.00  0.00    +0.000 OA
ATOM      7  N   UNL     1      19.368 -14.674  22.099  0.00  0.00    +0.000 N 
ATOM     16  C   UNL     1      18.239 -15.380  21.692  0.00  0.00    +0.000 C 
ATOM     25  H   UNL     1      20.227 -15.201  22.235  0.00  0.00    +0.000 HD
BRANCH  16  10
ATOM     10  C   UNL     1      18.540 -16.873  21.532  0.00  0.00    +0.000 C 
ATOM     19  C   UNL     1      17.654 -17.505  20.460  0.00  0.00    +0.000 C 
ATOM     20  C   UNL     1      20.015 -17.077  21.190  0.00  0.00    +0.000 C 
ENDBRANCH  16  10
ENDBRANCH  11   7
BRANCH   9   1
ATOM      1  S   UNL     1      19.810  -8.853  23.149  0.00  0.00    +0.000 S 
ATOM      3  O   UNL     1      21.181  -8.452  22.856  0.00  0.00    +0.000 OA
ATOM      4  O   UNL     1      19.264  -8.574  24.471  0.00  0.00    +0.000 OA
BRANCH   1   6
ATOM      6  N   UNL     1      18.784  -8.171  21.944  0.00  0.00    +0.000 N 
ATOM     24  H   UNL     1      19.099  -8.050  20.974  0.00  0.00    +0.000 HD
BRANCH   6  12
ATOM      2  O   UNL     1      16.789  -7.042  22.900  0.00  0.00    +0.000 OA
ATOM      8  N   UNL     1      15.421  -7.267  23.001  0.00  0.00    +0.000 NA
ATOM     12  C   UNL     1      17.378  -8.073  22.229  0.00  0.00    +0.000 A 
ATOM     15  C   UNL     1      16.408  -8.988  21.882  0.00  0.00    +0.000 A 
ATOM     21  C   UNL     1      15.217  -8.436  22.385  0.00  0.00    +0.000 A 
ATOM     22  C   UNL     1      16.582 -10.254  21.150  0.00  0.00    +0.000 C 
ATOM     23  C   UNL     1      13.855  -8.988  22.305  0.00  0.00    +0.000 C 
ENDBRANCH   6  12
ENDBRANCH   1   6
ENDBRANCH   9   1
TORSDOF 5
ENDMDL
MODEL 6
REMARK VINA RESULT:      -6.8      4.866      8.567
REMARK  Name = 678193
REMARK  9 active torsions:
REMARK  status: ('A' for Active; 'I' for Inactive)
REMARK    1  A    between atoms: S_1  and  N_6
REMARK    2  A    between atoms: S_1  and  C_9
REMARK    3  A    between atoms: N_6  and  C_12
REMARK    4  A    between atoms: N_7  and  C_11
REMARK    5  A    between atoms: C_10  and  C_16
REMARK    6  A    between atoms: C_10  and  C_19
REMARK    7  A    between atoms: C_10  and  C_20
REMARK    8  A    between atoms: C_15  and  C_22
REMARK    9  A    between atoms: C_21  and  C_23
REMARK                            x       y       z     vdW  Elec       q    Type
REMARK                         _______ _______ _______ _____ _____    ______ ____
ROOT
ATOM      9  C   UNL     1      31.739  -3.324  12.136  0.00  0.00    +0.000 A 
ATOM     11  C   UNL     1      32.337  -5.226  14.059  0.00  0.00    +0.000 A 
ATOM     13  C   UNL     1      31.664  -2.995  13.490  0.00  0.00    +0.000 A 
ATOM     14  C   UNL     1      32.116  -4.612  11.751  0.00  0.00    +0.000 A 
ATOM     17  C   UNL     1      31.965  -3.953  14.458  0.00  0.00    +0.000 A 
ATOM     18  C   UNL     1      32.417  -5.569  12.720  0.00  0.00    +0.000 A 
ENDROOT
BRANCH  11   7
ATOM      5  O   UNL     1      34.714  -5.470  15.869  0.00  0.00    +0.000 OA
ATOM      7  N   UNL     1      32.642  -6.197  15.042  0.00  0.00    +0.000 N 
ATOM     16  C   UNL     1      33.772  -6.258  15.854  0.00  0.00    +0.000 C 
ATOM     25  H   UNL     1      31.942  -6.925  15.158  0.00  0.00    +0.000 HD
BRANCH  16  10
ATOM     10  C   UNL     1      33.725  -7.469  16.790  0.00  0.00    +0.000 C 
ATOM     19  C   UNL     1      34.000  -7.062  18.236  0.00  0.00    +0.000 C 
ATOM     20  C   UNL     1      32.367  -8.162  16.682  0.00  0.00    +0.000 C 
ENDBRANCH  16  10
ENDBRANCH  11   7
BRANCH   9   1
ATOM      1  S   UNL     1      31.361  -2.126  10.923  0.00  0.00    +0.000 S 
ATOM      3  O   UNL     1      31.378  -2.789   9.625  0.00  0.00    +0.000 OA
ATOM      4  O   UNL     1      32.218  -0.965  11.131  0.00  0.00    +0.000 OA
BRANCH   1   6
ATOM      6  N   UNL     1      29.729  -1.713  11.292  0.00  0.00    +0.000 N 
ATOM     24  H   UNL     1      29.377  -1.717  12.256  0.00  0.00    +0.000 HD
BRANCH   6  12
ATOM      2  O   UNL     1      28.945   0.298  10.062  0.00  0.00    +0.000 OA
ATOM      8  N   UNL     1      28.088   0.599   9.010  0.00  0.00    +0.000 NA
ATOM     12  C   UNL     1      28.954  -1.049  10.278  0.00  0.00    +0.000 A 
ATOM     15  C   UNL     1      28.106  -1.650   9.374  0.00  0.00    +0.000 A 
ATOM     21  C   UNL     1      27.599  -0.581   8.614  0.00  0.00    +0.000 A 
ATOM     22  C   UNL     1      27.803  -3.084   9.235  0.00  0.00    +0.000 C 
ATOM     23  C   UNL     1      26.642  -0.634   7.497  0.00  0.00    +0.000 C 
ENDBRANCH   6  12
ENDBRANCH   1   6
ENDBRANCH   9   1
TORSDOF 5
ENDMDL
MODEL 7
REMARK VINA RESULT:      -6.6      3.186      5.391
REMARK  Name = 678193
REMARK  9 active torsions:
REMARK  status: ('A' for Active; 'I' for Inactive)
REMARK    1  A    between atoms: S_1  and  N_6
REMARK    2  A    between atoms: S_1  and  C_9
REMARK    3  A    between atoms: N_6  and  C_12
REMARK    4  A    between atoms: N_7  and  C_11
REMARK    5  A    between atoms: C_10  and  C_16
REMARK    6  A    between atoms: C_10  and  C_19
REMARK    7  A    between atoms: C_10  and  C_20
REMARK    8  A    between atoms: C_15  and  C_22
REMARK    9  A    between atoms: C_21  and  C_23
REMARK                            x       y       z     vdW  Elec       q    Type
REMARK                         _______ _______ _______ _____ _____    ______ ____
ROOT
ATOM      9  C   UNL     1      31.876  -2.671  11.967  0.00  0.00    +0.000 A 
ATOM     11  C   UNL     1      29.596  -2.463  10.407  0.00  0.00    +0.000 A 
ATOM     13  C   UNL     1      30.879  -1.756  12.307  0.00  0.00    +0.000 A 
ATOM     14  C   UNL     1      31.724  -3.481  10.841  0.00  0.00    +0.000 A 
ATOM     17  C   UNL     1      29.731  -1.652  11.522  0.00  0.00    +0.000 A 
ATOM     18  C   UNL     1      30.576  -3.376  10.056  0.00  0.00    +0.000 A 
ENDROOT
BRANCH  11   7
ATOM      5  O   UNL     1      28.616  -0.202   8.699  0.00  0.00    +0.000 OA
ATOM      7  N   UNL     1      28.431  -2.356   9.611  0.00  0.00    +0.000 N 
ATOM     16  C   UNL     1      28.027  -1.271   8.838  0.00  0.00    +0.000 C 
ATOM     25  H   UNL     1      27.833  -3.179   9.614  0.00  0.00    +0.000 HD
BRANCH  16  10
ATOM     10  C   UNL     1      26.701  -1.554   8.125  0.00  0.00    +0.000 C 
ATOM     19  C   UNL     1      26.771  -1.163   6.651  0.00  0.00    +0.000 C 
ATOM     20  C   UNL     1      26.335  -3.030   8.266  0.00  0.00    +0.000 C 
ENDBRANCH  16  10
ENDBRANCH  11   7
BRANCH   9   1
ATOM      1  S   UNL     1      33.313  -2.801  12.949  0.00  0.00    +0.000 S 
ATOM      3  O   UNL     1      33.615  -4.219  13.108  0.00  0.00    +0.000 OA
ATOM      4  O   UNL     1      33.140  -1.981  14.141  0.00  0.00    +0.000 OA
BRANCH   1   6
ATOM      6  N   UNL     1      34.527  -2.107  11.941  0.00  0.00    +0.000 N 
ATOM     24  H   UNL     1      35.120  -2.685  11.335  0.00  0.00    +0.000 HD
BRANCH   6  12
ATOM      2  O   UNL     1      34.857   0.261  12.620  0.00  0.00    +0.000 OA
ATOM      8  N   UNL     1      34.688   1.527  12.073  0.00  0.00    +0.000 NA
ATOM     12  C   UNL     1      34.484  -0.688  11.711  0.00  0.00    +0.000 A 
ATOM     15  C   UNL     1      34.067  -0.058  10.559  0.00  0.00    +0.000 A 
ATOM     21  C   UNL     1      34.215   1.311  10.841  0.00  0.00    +0.000 A 
ATOM     22  C   UNL     1      33.578  -0.681   9.317  0.00  0.00    +0.000 C 
ATOM     23  C   UNL     1      33.917   2.456   9.965  0.00  0.00    +0.000 C 
ENDBRANCH   6  12
ENDBRANCH   1   6
ENDBRANCH   9   1
TORSDOF 5
ENDMDL
MODEL 8
REMARK VINA RESULT:      -6.5      4.688      7.659
REMARK  Name = 678193
REMARK  9 active torsions:
REMARK  status: ('A' for Active; 'I' for Inactive)
REMARK    1  A    between atoms: S_1  and  N_6
REMARK    2  A    between atoms: S_1  and  C_9
REMARK    3  A    between atoms: N_6  and  C_12
REMARK    4  A    between atoms: N_7  and  C_11
REMARK    5  A    between atoms: C_10  and  C_16
REMARK    6  A    between atoms: C_10  and  C_19
REMARK    7  A    between atoms: C_10  and  C_20
REMARK    8  A    between atoms: C_15  and  C_22
REMARK    9  A    between atoms: C_21  and  C_23
REMARK                            x       y       z     vdW  Elec       q    Type
REMARK                         _______ _______ _______ _____ _____    ______ ____
ROOT
ATOM      9  C   UNL     1      32.035  -3.601  12.395  0.00  0.00    +0.000 A 
ATOM     11  C   UNL     1      32.476  -6.286  12.910  0.00  0.00    +0.000 A 
ATOM     13  C   UNL     1      31.963  -4.081  13.702  0.00  0.00    +0.000 A 
ATOM     14  C   UNL     1      32.328  -4.474  11.346  0.00  0.00    +0.000 A 
ATOM     17  C   UNL     1      32.186  -5.433  13.962  0.00  0.00    +0.000 A 
ATOM     18  C   UNL     1      32.550  -5.826  11.606  0.00  0.00    +0.000 A 
ENDROOT
BRANCH  11   7
ATOM      5  O   UNL     1      32.083  -8.688  11.159  0.00  0.00    +0.000 OA
ATOM      7  N   UNL     1      32.701  -7.658  13.175  0.00  0.00    +0.000 N 
ATOM     16  C   UNL     1      32.495  -8.734  12.315  0.00  0.00    +0.000 C 
ATOM     25  H   UNL     1      33.059  -7.862  14.104  0.00  0.00    +0.000 HD
BRANCH  16  10
ATOM     10  C   UNL     1      32.861 -10.063  12.983  0.00  0.00    +0.000 C 
ATOM     19  C   UNL     1      32.795  -9.953  14.505  0.00  0.00    +0.000 C 
ATOM     20  C   UNL     1      31.932 -11.171  12.490  0.00  0.00    +0.000 C 
ENDBRANCH  16  10
ENDBRANCH  11   7
BRANCH   9   1
ATOM      1  S   UNL     1      31.756  -1.908  12.069  0.00  0.00    +0.000 S 
ATOM      3  O   UNL     1      32.954  -1.177  12.463  0.00  0.00    +0.000 OA
ATOM      4  O   UNL     1      30.475  -1.526  12.652  0.00  0.00    +0.000 OA
BRANCH   1   6
ATOM      6  N   UNL     1      31.643  -1.864  10.350  0.00  0.00    +0.000 N 
ATOM     24  H   UNL     1      32.132  -2.549   9.760  0.00  0.00    +0.000 HD
BRANCH   6  12
ATOM      2  O   UNL     1      30.744   0.234   9.370  0.00  0.00    +0.000 OA
ATOM      8  N   UNL     1      29.545   0.700   8.844  0.00  0.00    +0.000 NA
ATOM     12  C   UNL     1      30.603  -1.066   9.760  0.00  0.00    +0.000 A 
ATOM     15  C   UNL     1      29.312  -1.470   9.497  0.00  0.00    +0.000 A 
ATOM     21  C   UNL     1      28.704  -0.336   8.930  0.00  0.00    +0.000 A 
ATOM     22  C   UNL     1      28.710  -2.790   9.751  0.00  0.00    +0.000 C 
ATOM     23  C   UNL     1      27.319  -0.191   8.454  0.00  0.00    +0.000 C 
ENDBRANCH   6  12
ENDBRANCH   1   6
ENDBRANCH   9   1
TORSDOF 5
ENDMDL
MODEL 9
REMARK VINA RESULT:      -6.4      3.680      8.790
REMARK  Name = 678193
REMARK  9 active torsions:
REMARK  status: ('A' for Active; 'I' for Inactive)
REMARK    1  A    between atoms: S_1  and  N_6
REMARK    2  A    between atoms: S_1  and  C_9
REMARK    3  A    between atoms: N_6  and  C_12
REMARK    4  A    between atoms: N_7  and  C_11
REMARK    5  A    between atoms: C_10  and  C_16
REMARK    6  A    between atoms: C_10  and  C_19
REMARK    7  A    between atoms: C_10  and  C_20
REMARK    8  A    between atoms: C_15  and  C_22
REMARK    9  A    between atoms: C_21  and  C_23
REMARK                            x       y       z     vdW  Elec       q    Type
REMARK                         _______ _______ _______ _____ _____    ______ ____
ROOT
ATOM      9  C   UNL     1      31.952  -1.041  10.688  0.00  0.00    +0.000 A 
ATOM     11  C   UNL     1      33.750   0.641   9.419  0.00  0.00    +0.000 A 
ATOM     13  C   UNL     1      33.187  -0.768  11.277  0.00  0.00    +0.000 A 
ATOM     14  C   UNL     1      31.623  -0.467   9.460  0.00  0.00    +0.000 A 
ATOM     17  C   UNL     1      34.092   0.079  10.638  0.00  0.00    +0.000 A 
ATOM     18  C   UNL     1      32.529   0.380   8.821  0.00  0.00    +0.000 A 
ENDROOT
BRANCH  11   7
ATOM      5  O   UNL     1      33.714   3.620   9.087  0.00  0.00    +0.000 OA
ATOM      7  N   UNL     1      34.669   1.501   8.772  0.00  0.00    +0.000 N 
ATOM     16  C   UNL     1      34.595   2.886   8.648  0.00  0.00    +0.000 C 
ATOM     25  H   UNL     1      35.474   1.035   8.359  0.00  0.00    +0.000 HD
BRANCH  16  10
ATOM     10  C   UNL     1      35.792   3.443   7.872  0.00  0.00    +0.000 C 
ATOM     19  C   UNL     1      36.361   2.403   6.909  0.00  0.00    +0.000 C 
ATOM     20  C   UNL     1      35.382   4.703   7.112  0.00  0.00    +0.000 C 
ENDBRANCH  16  10
ENDBRANCH  11   7
BRANCH   9   1
ATOM      1  S   UNL     1      30.819  -2.103  11.487  0.00  0.00    +0.000 S 
ATOM      3  O   UNL     1      31.184  -2.159  12.898  0.00  0.00    +0.000 OA
ATOM      4  O   UNL     1      30.733  -3.346  10.733  0.00  0.00    +0.000 OA
BRANCH   1   6
ATOM      6  N   UNL     1      29.332  -1.242  11.354  0.00  0.00    +0.000 N 
ATOM     24  H   UNL     1      29.146  -0.399  11.909  0.00  0.00    +0.000 HD
BRANCH   6  12
ATOM      2  O   UNL     1      28.044  -2.766   9.874  0.00  0.00    +0.000 OA
ATOM      8  N   UNL     1      27.252  -2.678   8.736  0.00  0.00    +0.000 NA
ATOM     12  C   UNL     1      28.486  -1.524  10.225  0.00  0.00    +0.000 A 
ATOM     15  C   UNL     1      27.991  -0.606   9.325  0.00  0.00    +0.000 A 
ATOM     21  C   UNL     1      27.234  -1.377   8.427  0.00  0.00    +0.000 A 
ATOM     22  C   UNL     1      28.207   0.851   9.311  0.00  0.00    +0.000 C 
ATOM     23  C   UNL     1      26.474  -0.919   7.253  0.00  0.00    +0.000 C 
ENDBRANCH   6  12
ENDBRANCH   1   6
ENDBRANCH   9   1
TORSDOF 5
ENDMDL
MODEL 10
REMARK VINA RESULT:      -6.3      3.673      6.024
REMARK  Name = 678193
REMARK  9 active torsions:
REMARK  status: ('A' for Active; 'I' for Inactive)
REMARK    1  A    between atoms: S_1  and  N_6
REMARK    2  A    between atoms: S_1  and  C_9
REMARK    3  A    between atoms: N_6  and  C_12
REMARK    4  A    between atoms: N_7  and  C_11
REMARK    5  A    between atoms: C_10  and  C_16
REMARK    6  A    between atoms: C_10  and  C_19
REMARK    7  A    between atoms: C_10  and  C_20
REMARK    8  A    between atoms: C_15  and  C_22
REMARK    9  A    between atoms: C_21  and  C_23
REMARK                            x       y       z     vdW  Elec       q    Type
REMARK                         _______ _______ _______ _____ _____    ______ ____
ROOT
ATOM      9  C   UNL     1      32.679  -1.440  12.523  0.00  0.00    +0.000 A 
ATOM     11  C   UNL     1      30.385  -1.685  10.991  0.00  0.00    +0.000 A 
ATOM     13  C   UNL     1      31.457  -1.720  13.137  0.00  0.00    +0.000 A 
ATOM     14  C   UNL     1      32.744  -1.283  11.138  0.00  0.00    +0.000 A 
ATOM     17  C   UNL     1      30.302  -1.844  12.365  0.00  0.00    +0.000 A 
ATOM     18  C   UNL     1      31.589  -1.406  10.367  0.00  0.00    +0.000 A 
ENDROOT
BRANCH  11   7
ATOM      5  O   UNL     1      28.477   0.408  10.007  0.00  0.00    +0.000 OA
ATOM      7  N   UNL     1      29.211  -1.811  10.210  0.00  0.00    +0.000 N 
ATOM     16  C   UNL     1      28.360  -0.794   9.785  0.00  0.00    +0.000 C 
ATOM     25  H   UNL     1      28.981  -2.762   9.932  0.00  0.00    +0.000 HD
BRANCH  16  10
ATOM     10  C   UNL     1      27.198  -1.347   8.956  0.00  0.00    +0.000 C 
ATOM     19  C   UNL     1      27.242  -0.823   7.521  0.00  0.00    +0.000 C 
ATOM     20  C   UNL     1      27.227  -2.874   8.964  0.00  0.00    +0.000 C 
ENDBRANCH  16  10
ENDBRANCH  11   7
BRANCH   9   1
ATOM      1  S   UNL     1      34.125  -1.283  13.489  0.00  0.00    +0.000 S 
ATOM      3  O   UNL     1      33.720  -1.222  14.888  0.00  0.00    +0.000 OA
ATOM      4  O   UNL     1      34.936  -0.202  12.943  0.00  0.00    +0.000 OA
BRANCH   1   6
ATOM      6  N   UNL     1      34.922  -2.790  13.229  0.00  0.00    +0.000 N 
ATOM     24  H   UNL     1      35.943  -2.876  13.287  0.00  0.00    +0.000 HD
BRANCH   6  12
ATOM      2  O   UNL     1      33.439  -4.446  14.338  0.00  0.00    +0.000 OA
ATOM      8  N   UNL     1      32.781  -5.626  14.013  0.00  0.00    +0.000 NA
ATOM     12  C   UNL     1      34.126  -3.988  13.252  0.00  0.00    +0.000 A 
ATOM     15  C   UNL     1      33.930  -4.859  12.203  0.00  0.00    +0.000 A 
ATOM     21  C   UNL     1      33.089  -5.853  12.732  0.00  0.00    +0.000 A 
ATOM     22  C   UNL     1      34.478  -4.766  10.839  0.00  0.00    +0.000 C 
ATOM     23  C   UNL     1      32.551  -7.044  12.054  0.00  0.00    +0.000 C 
ENDBRANCH   6  12
ENDBRANCH   1   6
ENDBRANCH   9   1
TORSDOF 5
ENDMDL
