MODEL 1
REMARK VINA RESULT:      -6.8      0.000      0.000
REMARK  Name = 2813558
REMARK  5 active torsions:
REMARK  status: ('A' for Active; 'I' for Inactive)
REMARK    1  A    between atoms: N_5  and  C_14
REMARK    2  A    between atoms: C_6  and  C_7
REMARK    3  A    between atoms: C_6  and  C_8
REMARK    4  A    between atoms: C_6  and  C_9
REMARK    5  A    between atoms: C_6  and  C_10
REMARK                            x       y       z     vdW  Elec       q    Type
REMARK                         _______ _______ _______ _____ _____    ______ ____
ROOT
ATOM      1  O   UNL     1      34.269   1.927   9.667  0.00  0.00    +0.000 OA
ATOM      2  O   UNL     1      30.865  -0.615   9.362  0.00  0.00    +0.000 OA
ATOM      3  N   UNL     1      33.114   1.168   9.523  0.00  0.00    +0.000 NA
ATOM      4  N   UNL     1      30.968   1.585   8.560  0.00  0.00    +0.000 N 
ATOM      5  N   UNL     1      29.027   0.363   8.297  0.00  0.00    +0.000 N 
ATOM      7  C   UNL     1      34.010   3.104   9.120  0.00  0.00    +0.000 A 
ATOM     11  C   UNL     1      32.801   3.234   8.616  0.00  0.00    +0.000 A 
ATOM     12  C   UNL     1      32.250   1.971   8.893  0.00  0.00    +0.000 A 
ATOM     13  C   UNL     1      30.339   0.340   8.799  0.00  0.00    +0.000 C 
ATOM     20  H   UNL     1      30.417   2.294   8.082  0.00  0.00    +0.000 HD
ATOM     21  H   UNL     1      28.725   1.226   7.853  0.00  0.00    +0.000 HD
ENDROOT
BRANCH   5  14
ATOM     14  C   UNL     1      28.063  -0.672   8.331  0.00  0.00    +0.000 A 
ATOM     15  C   UNL     1      27.408  -1.028   7.163  0.00  0.00    +0.000 A 
ATOM     16  C   UNL     1      27.794  -1.308   9.532  0.00  0.00    +0.000 A 
ATOM     17  C   UNL     1      26.459  -2.049   7.196  0.00  0.00    +0.000 A 
ATOM     18  C   UNL     1      26.843  -2.330   9.566  0.00  0.00    +0.000 A 
ATOM     19  C   UNL     1      26.176  -2.699   8.398  0.00  0.00    +0.000 A 
ENDBRANCH   5  14
BRANCH   7   6
ATOM      6  C   UNL     1      35.199   4.092   9.188  0.00  0.00    +0.000 C 
ATOM      8  C   UNL     1      35.986   3.876  10.499  0.00  0.00    +0.000 C 
ATOM      9  C   UNL     1      34.678   5.545   9.137  0.00  0.00    +0.000 C 
ATOM     10  C   UNL     1      36.199   3.925   8.023  0.00  0.00    +0.000 C 
ENDBRANCH   7   6
TORSDOF 2
ENDMDL
MODEL 2
REMARK VINA RESULT:      -6.6     16.854     18.579
REMARK  Name = 2813558
REMARK  5 active torsions:
REMARK  status: ('A' for Active; 'I' for Inactive)
REMARK    1  A    between atoms: N_5  and  C_14
REMARK    2  A    between atoms: C_6  and  C_7
REMARK    3  A    between atoms: C_6  and  C_8
REMARK    4  A    between atoms: C_6  and  C_9
REMARK    5  A    between atoms: C_6  and  C_10
REMARK                            x       y       z     vdW  Elec       q    Type
REMARK                         _______ _______ _______ _____ _____    ______ ____
ROOT
ATOM      1  O   UNL     1      23.428   6.225  -7.006  0.00  0.00    +0.000 OA
ATOM      2  O   UNL     1      24.971   2.362  -6.094  0.00  0.00    +0.000 OA
ATOM      3  N   UNL     1      23.875   4.929  -6.776  0.00  0.00    +0.000 NA
ATOM      4  N   UNL     1      23.361   2.804  -7.738  0.00  0.00    +0.000 N 
ATOM      5  N   UNL     1      24.075   0.637  -7.392  0.00  0.00    +0.000 N 
ATOM      7  C   UNL     1      22.537   6.141  -7.981  0.00  0.00    +0.000 A 
ATOM     11  C   UNL     1      22.324   4.927  -8.444  0.00  0.00    +0.000 A 
ATOM     12  C   UNL     1      23.201   4.172  -7.647  0.00  0.00    +0.000 A 
ATOM     13  C   UNL     1      24.218   1.971  -6.979  0.00  0.00    +0.000 C 
ATOM     20  H   UNL     1      22.786   2.351  -8.444  0.00  0.00    +0.000 HD
ATOM     21  H   UNL     1      23.411   0.460  -8.142  0.00  0.00    +0.000 HD
ENDROOT
BRANCH   5  14
ATOM     14  C   UNL     1      24.744  -0.507  -6.894  0.00  0.00    +0.000 A 
ATOM     15  C   UNL     1      24.033  -1.444  -6.162  0.00  0.00    +0.000 A 
ATOM     16  C   UNL     1      26.096  -0.665  -7.149  0.00  0.00    +0.000 A 
ATOM     17  C   UNL     1      24.692  -2.571  -5.672  0.00  0.00    +0.000 A 
ATOM     18  C   UNL     1      26.756  -1.793  -6.659  0.00  0.00    +0.000 A 
ATOM     19  C   UNL     1      26.054  -2.745  -5.920  0.00  0.00    +0.000 A 
ENDBRANCH   5  14
BRANCH   7   6
ATOM      6  C   UNL     1      21.924   7.507  -8.375  0.00  0.00    +0.000 C 
ATOM      8  C   UNL     1      22.133   8.525  -7.234  0.00  0.00    +0.000 C 
ATOM      9  C   UNL     1      20.412   7.344  -8.646  0.00  0.00    +0.000 C 
ATOM     10  C   UNL     1      22.553   8.112  -9.650  0.00  0.00    +0.000 C 
ENDBRANCH   7   6
TORSDOF 2
ENDMDL
MODEL 3
REMARK VINA RESULT:      -6.6      6.618      7.696
REMARK  Name = 2813558
REMARK  5 active torsions:
REMARK  status: ('A' for Active; 'I' for Inactive)
REMARK    1  A    between atoms: N_5  and  C_14
REMARK    2  A    between atoms: C_6  and  C_7
REMARK    3  A    between atoms: C_6  and  C_8
REMARK    4  A    between atoms: C_6  and  C_9
REMARK    5  A    between atoms: C_6  and  C_10
REMARK                            x       y       z     vdW  Elec       q    Type
REMARK                         _______ _______ _______ _____ _____    ______ ____
ROOT
ATOM      1  O   UNL     1      33.124  -3.425  15.800  0.00  0.00    +0.000 OA
ATOM      2  O   UNL     1      30.595  -1.552  12.931  0.00  0.00    +0.000 OA
ATOM      3  N   UNL     1      32.320  -2.884  14.804  0.00  0.00    +0.000 NA
ATOM      4  N   UNL     1      31.782  -3.540  12.571  0.00  0.00    +0.000 N 
ATOM      5  N   UNL     1      30.457  -2.680  10.888  0.00  0.00    +0.000 N 
ATOM      7  C   UNL     1      33.648  -4.529  15.293  0.00  0.00    +0.000 A 
ATOM     11  C   UNL     1      33.290  -4.804  14.057  0.00  0.00    +0.000 A 
ATOM     12  C   UNL     1      32.436  -3.726  13.772  0.00  0.00    +0.000 A 
ATOM     13  C   UNL     1      30.908  -2.488  12.204  0.00  0.00    +0.000 C 
ATOM     20  H   UNL     1      31.958  -4.257  11.871  0.00  0.00    +0.000 HD
ATOM     21  H   UNL     1      30.801  -3.505  10.404  0.00  0.00    +0.000 HD
ENDROOT
BRANCH   5  14
ATOM     14  C   UNL     1      29.575  -1.862  10.141  0.00  0.00    +0.000 A 
ATOM     15  C   UNL     1      28.259  -2.260   9.974  0.00  0.00    +0.000 A 
ATOM     16  C   UNL     1      30.047  -0.681   9.594  0.00  0.00    +0.000 A 
ATOM     17  C   UNL     1      27.390  -1.455   9.239  0.00  0.00    +0.000 A 
ATOM     18  C   UNL     1      29.178   0.126   8.858  0.00  0.00    +0.000 A 
ATOM     19  C   UNL     1      27.850  -0.261   8.681  0.00  0.00    +0.000 A 
ENDBRANCH   5  14
BRANCH   7   6
ATOM      6  C   UNL     1      34.585  -5.275  16.275  0.00  0.00    +0.000 C 
ATOM      8  C   UNL     1      35.952  -5.529  15.605  0.00  0.00    +0.000 C 
ATOM      9  C   UNL     1      33.953  -6.626  16.678  0.00  0.00    +0.000 C 
ATOM     10  C   UNL     1      34.853  -4.490  17.577  0.00  0.00    +0.000 C 
ENDBRANCH   7   6
TORSDOF 2
ENDMDL
MODEL 4
REMARK VINA RESULT:      -6.5      5.007      5.653
REMARK  Name = 2813558
REMARK  5 active torsions:
REMARK  status: ('A' for Active; 'I' for Inactive)
REMARK    1  A    between atoms: N_5  and  C_14
REMARK    2  A    between atoms: C_6  and  C_7
REMARK    3  A    between atoms: C_6  and  C_8
REMARK    4  A    between atoms: C_6  and  C_9
REMARK    5  A    between atoms: C_6  and  C_10
REMARK                            x       y       z     vdW  Elec       q    Type
REMARK                         _______ _______ _______ _____ _____    ______ ____
ROOT
ATOM      1  O   UNL     1      33.767  -3.210  12.785  0.00  0.00    +0.000 OA
ATOM      2  O   UNL     1      30.578  -3.025   9.969  0.00  0.00    +0.000 OA
ATOM      3  N   UNL     1      32.685  -3.085  11.923  0.00  0.00    +0.000 NA
ATOM      4  N   UNL     1      30.682  -1.783  11.955  0.00  0.00    +0.000 N 
ATOM      5  N   UNL     1      28.865  -1.543  10.551  0.00  0.00    +0.000 N 
ATOM      7  C   UNL     1      33.530  -2.391  13.797  0.00  0.00    +0.000 A 
ATOM     11  C   UNL     1      32.401  -1.718  13.721  0.00  0.00    +0.000 A 
ATOM     12  C   UNL     1      31.882  -2.189  12.504  0.00  0.00    +0.000 A 
ATOM     13  C   UNL     1      30.090  -2.204  10.739  0.00  0.00    +0.000 C 
ATOM     20  H   UNL     1      30.171  -1.095  12.501  0.00  0.00    +0.000 HD
ATOM     21  H   UNL     1      28.587  -0.886  11.275  0.00  0.00    +0.000 HD
ENDROOT
BRANCH   5  14
ATOM     14  C   UNL     1      27.960  -1.676   9.471  0.00  0.00    +0.000 A 
ATOM     15  C   UNL     1      27.297  -2.878   9.286  0.00  0.00    +0.000 A 
ATOM     16  C   UNL     1      27.755  -0.600   8.624  0.00  0.00    +0.000 A 
ATOM     17  C   UNL     1      26.405  -3.008   8.222  0.00  0.00    +0.000 A 
ATOM     18  C   UNL     1      26.862  -0.730   7.559  0.00  0.00    +0.000 A 
ATOM     19  C   UNL     1      26.187  -1.934   7.359  0.00  0.00    +0.000 A 
ENDBRANCH   5  14
BRANCH   7   6
ATOM      6  C   UNL     1      34.645  -2.397  14.871  0.00  0.00    +0.000 C 
ATOM      8  C   UNL     1      35.991  -2.796  14.228  0.00  0.00    +0.000 C 
ATOM      9  C   UNL     1      34.292  -3.404  15.987  0.00  0.00    +0.000 C 
ATOM     10  C   UNL     1      34.850  -1.022  15.545  0.00  0.00    +0.000 C 
ENDBRANCH   7   6
TORSDOF 2
ENDMDL
MODEL 5
REMARK VINA RESULT:      -6.4      5.133      5.804
REMARK  Name = 2813558
REMARK  5 active torsions:
REMARK  status: ('A' for Active; 'I' for Inactive)
REMARK    1  A    between atoms: N_5  and  C_14
REMARK    2  A    between atoms: C_6  and  C_7
REMARK    3  A    between atoms: C_6  and  C_8
REMARK    4  A    between atoms: C_6  and  C_9
REMARK    5  A    between atoms: C_6  and  C_10
REMARK                            x       y       z     vdW  Elec       q    Type
REMARK                         _______ _______ _______ _____ _____    ______ ____
ROOT
ATOM      1  O   UNL     1      33.868  -1.727  15.436  0.00  0.00    +0.000 OA
ATOM      2  O   UNL     1      30.461  -1.772  12.881  0.00  0.00    +0.000 OA
ATOM      3  N   UNL     1      32.814  -1.725  14.530  0.00  0.00    +0.000 NA
ATOM      4  N   UNL     1      32.663  -1.406  12.167  0.00  0.00    +0.000 N 
ATOM      5  N   UNL     1      30.945  -1.394  10.625  0.00  0.00    +0.000 N 
ATOM      7  C   UNL     1      34.963  -1.496  14.731  0.00  0.00    +0.000 A 
ATOM     11  C   UNL     1      34.775  -1.335  13.438  0.00  0.00    +0.000 A 
ATOM     12  C   UNL     1      33.381  -1.487  13.343  0.00  0.00    +0.000 A 
ATOM     13  C   UNL     1      31.266  -1.548  11.983  0.00  0.00    +0.000 C 
ATOM     20  H   UNL     1      33.219  -1.221  11.336  0.00  0.00    +0.000 HD
ATOM     21  H   UNL     1      31.720  -1.212   9.992  0.00  0.00    +0.000 HD
ENDROOT
BRANCH   5  14
ATOM     14  C   UNL     1      29.668  -1.461  10.018  0.00  0.00    +0.000 A 
ATOM     15  C   UNL     1      29.048  -2.691   9.877  0.00  0.00    +0.000 A 
ATOM     16  C   UNL     1      29.065  -0.294   9.580  0.00  0.00    +0.000 A 
ATOM     17  C   UNL     1      27.789  -2.757   9.279  0.00  0.00    +0.000 A 
ATOM     18  C   UNL     1      27.805  -0.359   8.982  0.00  0.00    +0.000 A 
ATOM     19  C   UNL     1      27.168  -1.590   8.833  0.00  0.00    +0.000 A 
ENDBRANCH   5  14
BRANCH   7   6
ATOM      6  C   UNL     1      36.253  -1.463  15.587  0.00  0.00    +0.000 C 
ATOM      8  C   UNL     1      37.024  -2.790  15.424  0.00  0.00    +0.000 C 
ATOM      9  C   UNL     1      35.890  -1.260  17.074  0.00  0.00    +0.000 C 
ATOM     10  C   UNL     1      37.217  -0.322  15.193  0.00  0.00    +0.000 C 
ENDBRANCH   7   6
TORSDOF 2
ENDMDL
MODEL 6
REMARK VINA RESULT:      -6.3      5.999      6.879
REMARK  Name = 2813558
REMARK  5 active torsions:
REMARK  status: ('A' for Active; 'I' for Inactive)
REMARK    1  A    between atoms: N_5  and  C_14
REMARK    2  A    between atoms: C_6  and  C_7
REMARK    3  A    between atoms: C_6  and  C_8
REMARK    4  A    between atoms: C_6  and  C_9
REMARK    5  A    between atoms: C_6  and  C_10
REMARK                            x       y       z     vdW  Elec       q    Type
REMARK                         _______ _______ _______ _____ _____    ______ ____
ROOT
ATOM      1  O   UNL     1      34.096  -4.304  13.504  0.00  0.00    +0.000 OA
ATOM      2  O   UNL     1      31.172  -2.975  10.707  0.00  0.00    +0.000 OA
ATOM      3  N   UNL     1      33.102  -3.820  12.661  0.00  0.00    +0.000 NA
ATOM      4  N   UNL     1      31.236  -2.360  12.968  0.00  0.00    +0.000 N 
ATOM      5  N   UNL     1      29.568  -1.531  11.605  0.00  0.00    +0.000 N 
ATOM      7  C   UNL     1      33.858  -3.780  14.696  0.00  0.00    +0.000 A 
ATOM     11  C   UNL     1      32.808  -2.988  14.761  0.00  0.00    +0.000 A 
ATOM     12  C   UNL     1      32.344  -3.037  13.436  0.00  0.00    +0.000 A 
ATOM     13  C   UNL     1      30.705  -2.353  11.655  0.00  0.00    +0.000 C 
ATOM     20  H   UNL     1      30.751  -1.799  13.663  0.00  0.00    +0.000 HD
ATOM     21  H   UNL     1      29.296  -1.076  12.473  0.00  0.00    +0.000 HD
ENDROOT
BRANCH   5  14
ATOM     14  C   UNL     1      28.742  -1.251  10.490  0.00  0.00    +0.000 A 
ATOM     15  C   UNL     1      28.902  -0.054   9.811  0.00  0.00    +0.000 A 
ATOM     16  C   UNL     1      27.793  -2.181  10.100  0.00  0.00    +0.000 A 
ATOM     17  C   UNL     1      28.090   0.221   8.711  0.00  0.00    +0.000 A 
ATOM     18  C   UNL     1      26.980  -1.906   9.000  0.00  0.00    +0.000 A 
ATOM     19  C   UNL     1      27.129  -0.706   8.306  0.00  0.00    +0.000 A 
ENDBRANCH   5  14
BRANCH   7   6
ATOM      6  C   UNL     1      34.879  -4.213  15.776  0.00  0.00    +0.000 C 
ATOM      8  C   UNL     1      35.007  -3.112  16.849  0.00  0.00    +0.000 C 
ATOM      9  C   UNL     1      36.258  -4.458  15.125  0.00  0.00    +0.000 C 
ATOM     10  C   UNL     1      34.480  -5.516  16.503  0.00  0.00    +0.000 C 
ENDBRANCH   7   6
TORSDOF 2
ENDMDL
MODEL 7
REMARK VINA RESULT:      -6.1      2.591      8.121
REMARK  Name = 2813558
REMARK  5 active torsions:
REMARK  status: ('A' for Active; 'I' for Inactive)
REMARK    1  A    between atoms: N_5  and  C_14
REMARK    2  A    between atoms: C_6  and  C_7
REMARK    3  A    between atoms: C_6  and  C_8
REMARK    4  A    between atoms: C_6  and  C_9
REMARK    5  A    between atoms: C_6  and  C_10
REMARK                            x       y       z     vdW  Elec       q    Type
REMARK                         _______ _______ _______ _____ _____    ______ ____
ROOT
ATOM      1  O   UNL     1      30.877  -0.883   9.708  0.00  0.00    +0.000 OA
ATOM      2  O   UNL     1      32.490   2.951   8.794  0.00  0.00    +0.000 OA
ATOM      3  N   UNL     1      31.489   0.328   9.409  0.00  0.00    +0.000 NA
ATOM      4  N   UNL     1      33.755   0.994   9.049  0.00  0.00    +0.000 N 
ATOM      5  N   UNL     1      34.815   2.983   8.550  0.00  0.00    +0.000 N 
ATOM      7  C   UNL     1      31.847  -1.780   9.785  0.00  0.00    +0.000 A 
ATOM     11  C   UNL     1      33.060  -1.314   9.570  0.00  0.00    +0.000 A 
ATOM     12  C   UNL     1      32.794   0.045   9.332  0.00  0.00    +0.000 A 
ATOM     13  C   UNL     1      33.573   2.376   8.796  0.00  0.00    +0.000 C 
ATOM     20  H   UNL     1      34.709   0.643   9.020  0.00  0.00    +0.000 HD
ATOM     21  H   UNL     1      35.632   2.379   8.584  0.00  0.00    +0.000 HD
ENDROOT
BRANCH   5  14
ATOM     14  C   UNL     1      35.077   4.343   8.257  0.00  0.00    +0.000 A 
ATOM     15  C   UNL     1      35.378   4.711   6.956  0.00  0.00    +0.000 A 
ATOM     16  C   UNL     1      35.028   5.277   9.278  0.00  0.00    +0.000 A 
ATOM     17  C   UNL     1      35.635   6.051   6.667  0.00  0.00    +0.000 A 
ATOM     18  C   UNL     1      35.285   6.618   8.990  0.00  0.00    +0.000 A 
ATOM     19  C   UNL     1      35.589   7.004   7.685  0.00  0.00    +0.000 A 
ENDBRANCH   5  14
BRANCH   7   6
ATOM      6  C   UNL     1      31.346  -3.206  10.115  0.00  0.00    +0.000 C 
ATOM      8  C   UNL     1      32.062  -4.236   9.216  0.00  0.00    +0.000 C 
ATOM      9  C   UNL     1      29.822  -3.293   9.880  0.00  0.00    +0.000 C 
ATOM     10  C   UNL     1      31.605  -3.620  11.580  0.00  0.00    +0.000 C 
ENDBRANCH   7   6
TORSDOF 2
ENDMDL
MODEL 8
REMARK VINA RESULT:      -5.8      6.276      7.146
REMARK  Name = 2813558
REMARK  5 active torsions:
REMARK  status: ('A' for Active; 'I' for Inactive)
REMARK    1  A    between atoms: N_5  and  C_14
REMARK    2  A    between atoms: C_6  and  C_7
REMARK    3  A    between atoms: C_6  and  C_8
REMARK    4  A    between atoms: C_6  and  C_9
REMARK    5  A    between atoms: C_6  and  C_10
REMARK                            x       y       z     vdW  Elec       q    Type
REMARK                         _______ _______ _______ _____ _____    ______ ____
ROOT
ATOM      1  O   UNL     1      34.901  -2.258  16.875  0.00  0.00    +0.000 OA
ATOM      2  O   UNL     1      32.031  -3.095  13.842  0.00  0.00    +0.000 OA
ATOM      3  N   UNL     1      33.983  -2.446  15.848  0.00  0.00    +0.000 NA
ATOM      4  N   UNL     1      33.261  -1.107  14.006  0.00  0.00    +0.000 N 
ATOM      5  N   UNL     1      31.748  -1.375  12.284  0.00  0.00    +0.000 N 
ATOM      7  C   UNL     1      35.421  -1.055  16.691  0.00  0.00    +0.000 A 
ATOM     11  C   UNL     1      34.958  -0.398  15.649  0.00  0.00    +0.000 A 
ATOM     12  C   UNL     1      34.035  -1.320  15.129  0.00  0.00    +0.000 A 
ATOM     13  C   UNL     1      32.313  -1.979  13.418  0.00  0.00    +0.000 C 
ATOM     20  H   UNL     1      33.401  -0.207  13.554  0.00  0.00    +0.000 HD
ATOM     21  H   UNL     1      32.081  -0.442  12.051  0.00  0.00    +0.000 HD
ENDROOT
BRANCH   5  14
ATOM     14  C   UNL     1      30.765  -1.903  11.413  0.00  0.00    +0.000 A 
ATOM     15  C   UNL     1      31.113  -2.911  10.529  0.00  0.00    +0.000 A 
ATOM     16  C   UNL     1      29.476  -1.401  11.465  0.00  0.00    +0.000 A 
ATOM     17  C   UNL     1      30.144  -3.432   9.672  0.00  0.00    +0.000 A 
ATOM     18  C   UNL     1      28.505  -1.922  10.607  0.00  0.00    +0.000 A 
ATOM     19  C   UNL     1      28.841  -2.937   9.711  0.00  0.00    +0.000 A 
ENDBRANCH   5  14
BRANCH   7   6
ATOM      6  C   UNL     1      36.478  -0.671  17.755  0.00  0.00    +0.000 C 
ATOM      8  C   UNL     1      37.852  -0.469  17.080  0.00  0.00    +0.000 C 
ATOM      9  C   UNL     1      36.587  -1.789  18.814  0.00  0.00    +0.000 C 
ATOM     10  C   UNL     1      36.140   0.636  18.505  0.00  0.00    +0.000 C 
ENDBRANCH   7   6
TORSDOF 2
ENDMDL
MODEL 9
REMARK VINA RESULT:      -5.6      5.378      6.266
REMARK  Name = 2813558
REMARK  5 active torsions:
REMARK  status: ('A' for Active; 'I' for Inactive)
REMARK    1  A    between atoms: N_5  and  C_14
REMARK    2  A    between atoms: C_6  and  C_7
REMARK    3  A    between atoms: C_6  and  C_8
REMARK    4  A    between atoms: C_6  and  C_9
REMARK    5  A    between atoms: C_6  and  C_10
REMARK                            x       y       z     vdW  Elec       q    Type
REMARK                         _______ _______ _______ _____ _____    ______ ____
ROOT
ATOM      1  O   UNL     1      34.940  -0.817  16.471  0.00  0.00    +0.000 OA
ATOM      2  O   UNL     1      31.904  -2.162  13.805  0.00  0.00    +0.000 OA
ATOM      3  N   UNL     1      33.986  -1.198  15.536  0.00  0.00    +0.000 NA
ATOM      4  N   UNL     1      33.546  -0.577  13.271  0.00  0.00    +0.000 N 
ATOM      5  N   UNL     1      31.981  -1.180  11.685  0.00  0.00    +0.000 N 
ATOM      7  C   UNL     1      35.710   0.077  15.872  0.00  0.00    +0.000 A 
ATOM     11  C   UNL     1      35.386   0.351  14.626  0.00  0.00    +0.000 A 
ATOM     12  C   UNL     1      34.272  -0.486  14.441  0.00  0.00    +0.000 A 
ATOM     13  C   UNL     1      32.418  -1.390  13.003  0.00  0.00    +0.000 C 
ATOM     20  H   UNL     1      33.872   0.020  12.516  0.00  0.00    +0.000 HD
ATOM     21  H   UNL     1      32.507  -0.508  11.133  0.00  0.00    +0.000 HD
ENDROOT
BRANCH   5  14
ATOM     14  C   UNL     1      30.891  -1.790  11.021  0.00  0.00    +0.000 A 
ATOM     15  C   UNL     1      29.614  -1.285  11.206  0.00  0.00    +0.000 A 
ATOM     16  C   UNL     1      31.123  -2.880  10.198  0.00  0.00    +0.000 A 
ATOM     17  C   UNL     1      28.540  -1.885  10.550  0.00  0.00    +0.000 A 
ATOM     18  C   UNL     1      30.048  -3.481   9.542  0.00  0.00    +0.000 A 
ATOM     19  C   UNL     1      28.757  -2.984   9.718  0.00  0.00    +0.000 A 
ENDBRANCH   5  14
BRANCH   7   6
ATOM      6  C   UNL     1      36.844   0.620  16.775  0.00  0.00    +0.000 C 
ATOM      8  C   UNL     1      37.138  -0.385  17.909  0.00  0.00    +0.000 C 
ATOM      9  C   UNL     1      36.424   1.975  17.387  0.00  0.00    +0.000 C 
ATOM     10  C   UNL     1      38.169   0.854  16.016  0.00  0.00    +0.000 C 
ENDBRANCH   7   6
TORSDOF 2
ENDMDL
MODEL 10
REMARK VINA RESULT:      -5.6     15.908     18.463
REMARK  Name = 2813558
REMARK  5 active torsions:
REMARK  status: ('A' for Active; 'I' for Inactive)
REMARK    1  A    between atoms: N_5  and  C_14
REMARK    2  A    between atoms: C_6  and  C_7
REMARK    3  A    between atoms: C_6  and  C_8
REMARK    4  A    between atoms: C_6  and  C_9
REMARK    5  A    between atoms: C_6  and  C_10
REMARK                            x       y       z     vdW  Elec       q    Type
REMARK                         _______ _______ _______ _____ _____    ______ ____
ROOT
ATOM      1  O   UNL     1      26.555   6.948  -6.915  0.00  0.00    +0.000 OA
ATOM      2  O   UNL     1      30.530   8.438  -6.576  0.00  0.00    +0.000 OA
ATOM      3  N   UNL     1      27.822   7.490  -6.733  0.00  0.00    +0.000 NA
ATOM      4  N   UNL     1      28.729   9.117  -5.239  0.00  0.00    +0.000 N 
ATOM      5  N   UNL     1      30.817  10.043  -4.900  0.00  0.00    +0.000 N 
ATOM      7  C   UNL     1      25.772   7.529  -6.019  0.00  0.00    +0.000 A 
ATOM     11  C   UNL     1      26.367   8.410  -5.243  0.00  0.00    +0.000 A 
ATOM     12  C   UNL     1      27.684   8.361  -5.729  0.00  0.00    +0.000 A 
ATOM     13  C   UNL     1      30.079   9.128  -5.668  0.00  0.00    +0.000 C 
ATOM     20  H   UNL     1      28.486   9.740  -4.473  0.00  0.00    +0.000 HD
ATOM     21  H   UNL     1      30.308  10.546  -4.178  0.00  0.00    +0.000 HD
ENDROOT
BRANCH   5  14
ATOM     14  C   UNL     1      32.193  10.357  -5.004  0.00  0.00    +0.000 A 
ATOM     15  C   UNL     1      32.595  11.365  -5.865  0.00  0.00    +0.000 A 
ATOM     16  C   UNL     1      33.108   9.651  -4.242  0.00  0.00    +0.000 A 
ATOM     17  C   UNL     1      33.950  11.676  -5.967  0.00  0.00    +0.000 A 
ATOM     18  C   UNL     1      34.465   9.962  -4.343  0.00  0.00    +0.000 A 
ATOM     19  C   UNL     1      34.885  10.974  -5.206  0.00  0.00    +0.000 A 
ENDBRANCH   5  14
BRANCH   7   6
ATOM      6  C   UNL     1      24.304   7.043  -6.074  0.00  0.00    +0.000 C 
ATOM      8  C   UNL     1      23.736   6.925  -4.643  0.00  0.00    +0.000 C 
ATOM      9  C   UNL     1      24.234   5.665  -6.768  0.00  0.00    +0.000 C 
ATOM     10  C   UNL     1      23.375   7.996  -6.858  0.00  0.00    +0.000 C 
ENDBRANCH   7   6
TORSDOF 2
ENDMDL
