REMARK  Name = 6470079
REMARK  2 active torsions:
REMARK  status: ('A' for Active; 'I' for Inactive)
REMARK    1  A    between atoms: S_2  and  N_6
REMARK    2  A    between atoms: S_2  and  C_8
REMARK                            x       y       z     vdW  Elec       q    Type
REMARK                         _______ _______ _______ _____ _____    ______ ____
ROOT
ATOM      2  S   UNL     1       0.376   1.709   0.266  0.00  0.00    +0.000 S 
ATOM      3  O   UNL     1       0.059   3.026  -0.272  0.00  0.00    +0.000 OA
ATOM      4  O   UNL     1       0.885   1.594   1.627  0.00  0.00    +0.000 OA
ENDROOT
BRANCH   2   8
ATOM      1 BR   UNL     1      -4.867  -1.972  -0.222  0.00  0.00    +0.000 Br
ATOM      8  C   UNL     1      -1.048   0.708   0.133  0.00  0.00    +0.000 A 
ATOM      9  C   UNL     1      -1.220  -0.378   0.991  0.00  0.00    +0.000 A 
ATOM     10  C   UNL     1      -2.015   0.996  -0.830  0.00  0.00    +0.000 A 
ATOM     12  C   UNL     1      -2.358  -1.177   0.885  0.00  0.00    +0.000 A 
ATOM     13  C   UNL     1      -3.153   0.197  -0.936  0.00  0.00    +0.000 A 
ATOM     14  C   UNL     1      -3.325  -0.889  -0.079  0.00  0.00    +0.000 A 
ENDBRANCH   2   8
BRANCH   2   6
ATOM      5  O   UNL     1       3.397  -1.580   0.737  0.00  0.00    +0.000 OA
ATOM      6  N   UNL     1       1.446   0.914  -0.800  0.00  0.00    +0.000 N 
ATOM      7  N   UNL     1       2.426  -0.588   0.804  0.00  0.00    +0.000 NA
ATOM     11  C   UNL     1       2.338  -0.124  -0.438  0.00  0.00    +0.000 A 
ATOM     15  C   UNL     1       3.206  -0.762  -1.329  0.00  0.00    +0.000 A 
ATOM     16  C   UNL     1       3.853  -1.674  -0.538  0.00  0.00    +0.000 A 
ATOM     17  H   UNL     1       1.518   1.267  -1.763  0.00  0.00    +0.000 HD
ENDBRANCH   2   6
TORSDOF 2
