MODEL 1
REMARK VINA RESULT:      -8.8      0.000      0.000
REMARK  Name = 536471
REMARK  11 active torsions:
REMARK  status: ('A' for Active; 'I' for Inactive)
REMARK    1  A    between atoms: S_1  and  N_14
REMARK    2  A    between atoms: S_1  and  C_24
REMARK    3  A    between atoms: N_12  and  C_16
REMARK    4  A    between atoms: N_12  and  C_19
REMARK    5  A    between atoms: N_13  and  C_16
REMARK    6  A    between atoms: C_16  and  C_17
REMARK    7  A    between atoms: C_16  and  C_18
REMARK    8  A    between atoms: C_20  and  C_21
REMARK    9  A    between atoms: C_21  and  C_25
REMARK   10  A    between atoms: C_25  and  C_28
REMARK   11  A    between atoms: C_31  and  C_32
REMARK                            x       y       z     vdW  Elec       q    Type
REMARK                         _______ _______ _______ _____ _____    ______ ____
ROOT
ATOM     12  N   UNL     1      24.787  -3.737   7.359  0.00  0.00    +0.000 N 
ATOM     33  H   UNL     1      24.921  -3.962   6.377  0.00  0.00    +0.000 HD
ENDROOT
BRANCH  12  19
ATOM     19  C   UNL     1      25.701  -2.830   7.872  0.00  0.00    +0.000 A 
ATOM     22  C   UNL     1      26.050  -1.701   7.133  0.00  0.00    +0.000 A 
ATOM     23  C   UNL     1      26.272  -3.048   9.126  0.00  0.00    +0.000 A 
ATOM     24  C   UNL     1      27.541  -1.004   8.903  0.00  0.00    +0.000 A 
ATOM     26  C   UNL     1      26.971  -0.787   7.648  0.00  0.00    +0.000 A 
ATOM     27  C   UNL     1      27.191  -2.135   9.642  0.00  0.00    +0.000 A 
BRANCH  24   1
ATOM      1  S   UNL     1      28.693   0.138   9.547  0.00  0.00    +0.000 S 
ATOM      9  O   UNL     1      29.813   0.228   8.617  0.00  0.00    +0.000 OA
ATOM     10  O   UNL     1      27.971   1.348   9.920  0.00  0.00    +0.000 OA
BRANCH   1  14
ATOM     11  O   UNL     1      32.091  -2.655  10.515  0.00  0.00    +0.000 OA
ATOM     14  N   UNL     1      29.206  -0.666  10.963  0.00  0.00    +0.000 N 
ATOM     15  N   UNL     1      31.124  -1.793  10.014  0.00  0.00    +0.000 NA
ATOM     29  C   UNL     1      30.330  -1.521  11.053  0.00  0.00    +0.000 A 
ATOM     30  C   UNL     1      30.744  -2.177  12.226  0.00  0.00    +0.000 A 
ATOM     31  C   UNL     1      31.854  -2.877  11.834  0.00  0.00    +0.000 A 
ATOM     32  C   UNL     1      32.788  -3.772  12.527  0.00  0.00    +0.000 C 
ATOM     35  H   UNL     1      28.610  -0.599  11.798  0.00  0.00    +0.000 HD
ENDBRANCH   1  14
ENDBRANCH  24   1
ENDBRANCH  12  19
BRANCH  12  16
ATOM     16  C   UNL     1      23.726  -4.501   8.038  0.00  0.00    +0.000 C 
BRANCH  16  17
ATOM      2  F   UNL     1      21.661  -5.572   7.455  0.00  0.00    +0.000 F 
ATOM      3  F   UNL     1      21.753  -3.417   7.203  0.00  0.00    +0.000 F 
ATOM      4  F   UNL     1      22.833  -4.723   5.839  0.00  0.00    +0.000 F 
ATOM     17  C   UNL     1      22.483  -4.548   7.136  0.00  0.00    +0.000 C 
ENDBRANCH  16  17
BRANCH  16  18
ATOM      5  F   UNL     1      24.869  -6.093   9.426  0.00  0.00    +0.000 F 
ATOM      6  F   UNL     1      25.204  -6.219   7.277  0.00  0.00    +0.000 F 
ATOM      7  F   UNL     1      23.298  -6.850   8.126  0.00  0.00    +0.000 F 
ATOM     18  C   UNL     1      24.280  -5.925   8.222  0.00  0.00    +0.000 C 
ENDBRANCH  16  18
BRANCH  16  13
ATOM      8  O   UNL     1      21.994  -5.419  10.304  0.00  0.00    +0.000 OA
ATOM     13  N   UNL     1      23.491  -3.903   9.358  0.00  0.00    +0.000 N 
ATOM     20  C   UNL     1      22.666  -4.395  10.359  0.00  0.00    +0.000 C 
ATOM     34  H   UNL     1      24.079  -3.115   9.607  0.00  0.00    +0.000 HD
BRANCH  20  21
ATOM     21  C   UNL     1      22.667  -3.474  11.571  0.00  0.00    +0.000 C 
BRANCH  21  25
ATOM     25  C   UNL     1      22.083  -2.090  11.293  0.00  0.00    +0.000 C 
ATOM     28  C   UNL     1      20.680  -1.925  11.858  0.00  0.00    +0.000 C 
ENDBRANCH  21  25
ENDBRANCH  20  21
ENDBRANCH  16  13
ENDBRANCH  12  16
TORSDOF 9
ENDMDL
MODEL 2
REMARK VINA RESULT:      -8.7      2.470      3.007
REMARK  Name = 536471
REMARK  11 active torsions:
REMARK  status: ('A' for Active; 'I' for Inactive)
REMARK    1  A    between atoms: S_1  and  N_14
REMARK    2  A    between atoms: S_1  and  C_24
REMARK    3  A    between atoms: N_12  and  C_16
REMARK    4  A    between atoms: N_12  and  C_19
REMARK    5  A    between atoms: N_13  and  C_16
REMARK    6  A    between atoms: C_16  and  C_17
REMARK    7  A    between atoms: C_16  and  C_18
REMARK    8  A    between atoms: C_20  and  C_21
REMARK    9  A    between atoms: C_21  and  C_25
REMARK   10  A    between atoms: C_25  and  C_28
REMARK   11  A    between atoms: C_31  and  C_32
REMARK                            x       y       z     vdW  Elec       q    Type
REMARK                         _______ _______ _______ _____ _____    ______ ____
ROOT
ATOM     12  N   UNL     1      23.826  -5.749   7.038  0.00  0.00    +0.000 N 
ATOM     33  H   UNL     1      24.109  -6.154   6.149  0.00  0.00    +0.000 HD
ENDROOT
BRANCH  12  19
ATOM     19  C   UNL     1      24.748  -4.875   7.592  0.00  0.00    +0.000 A 
ATOM     22  C   UNL     1      24.507  -3.502   7.570  0.00  0.00    +0.000 A 
ATOM     23  C   UNL     1      25.917  -5.369   8.172  0.00  0.00    +0.000 A 
ATOM     24  C   UNL     1      26.604  -3.116   8.708  0.00  0.00    +0.000 A 
ATOM     26  C   UNL     1      25.435  -2.622   8.127  0.00  0.00    +0.000 A 
ATOM     27  C   UNL     1      26.844  -4.491   8.730  0.00  0.00    +0.000 A 
BRANCH  24   1
ATOM      1  S   UNL     1      27.765  -2.015   9.405  0.00  0.00    +0.000 S 
ATOM      9  O   UNL     1      28.078  -0.995   8.411  0.00  0.00    +0.000 OA
ATOM     10  O   UNL     1      27.277  -1.612  10.717  0.00  0.00    +0.000 OA
BRANCH   1  14
ATOM     11  O   UNL     1      31.811  -1.532  11.323  0.00  0.00    +0.000 OA
ATOM     14  N   UNL     1      29.119  -3.037   9.601  0.00  0.00    +0.000 N 
ATOM     15  N   UNL     1      30.528  -1.475  10.794  0.00  0.00    +0.000 NA
ATOM     29  C   UNL     1      30.323  -2.679  10.252  0.00  0.00    +0.000 A 
ATOM     30  C   UNL     1      31.431  -3.530  10.409  0.00  0.00    +0.000 A 
ATOM     31  C   UNL     1      32.339  -2.761  11.088  0.00  0.00    +0.000 A 
ATOM     32  C   UNL     1      33.700  -2.997  11.584  0.00  0.00    +0.000 C 
ATOM     35  H   UNL     1      29.101  -3.956   9.139  0.00  0.00    +0.000 HD
ENDBRANCH   1  14
ENDBRANCH  24   1
ENDBRANCH  12  19
BRANCH  12  16
ATOM     16  C   UNL     1      22.557  -6.260   7.583  0.00  0.00    +0.000 C 
BRANCH  16  17
ATOM      2  F   UNL     1      21.107  -8.164   7.427  0.00  0.00    +0.000 F 
ATOM      3  F   UNL     1      22.093  -7.531   5.598  0.00  0.00    +0.000 F 
ATOM      4  F   UNL     1      23.233  -8.509   7.172  0.00  0.00    +0.000 F 
ATOM     17  C   UNL     1      22.241  -7.617   6.936  0.00  0.00    +0.000 C 
ENDBRANCH  16  17
BRANCH  16  18
ATOM      5  F   UNL     1      22.949  -5.279   9.740  0.00  0.00    +0.000 F 
ATOM      6  F   UNL     1      23.899  -7.195   9.326  0.00  0.00    +0.000 F 
ATOM      7  F   UNL     1      21.749  -7.093   9.672  0.00  0.00    +0.000 F 
ATOM     18  C   UNL     1      22.791  -6.454   9.092  0.00  0.00    +0.000 C 
ENDBRANCH  16  18
BRANCH  16  13
ATOM      8  O   UNL     1      21.933  -4.565   5.192  0.00  0.00    +0.000 OA
ATOM     13  N   UNL     1      21.519  -5.242   7.385  0.00  0.00    +0.000 N 
ATOM     20  C   UNL     1      21.295  -4.494   6.237  0.00  0.00    +0.000 C 
ATOM     34  H   UNL     1      20.823  -5.158   8.117  0.00  0.00    +0.000 HD
BRANCH  20  21
ATOM     21  C   UNL     1      20.142  -3.521   6.434  0.00  0.00    +0.000 C 
BRANCH  21  25
ATOM     25  C   UNL     1      20.536  -2.240   7.166  0.00  0.00    +0.000 C 
ATOM     28  C   UNL     1      19.411  -1.215   7.192  0.00  0.00    +0.000 C 
ENDBRANCH  21  25
ENDBRANCH  20  21
ENDBRANCH  16  13
ENDBRANCH  12  16
TORSDOF 9
ENDMDL
MODEL 3
REMARK VINA RESULT:      -7.3      6.535      9.722
REMARK  Name = 536471
REMARK  11 active torsions:
REMARK  status: ('A' for Active; 'I' for Inactive)
REMARK    1  A    between atoms: S_1  and  N_14
REMARK    2  A    between atoms: S_1  and  C_24
REMARK    3  A    between atoms: N_12  and  C_16
REMARK    4  A    between atoms: N_12  and  C_19
REMARK    5  A    between atoms: N_13  and  C_16
REMARK    6  A    between atoms: C_16  and  C_17
REMARK    7  A    between atoms: C_16  and  C_18
REMARK    8  A    between atoms: C_20  and  C_21
REMARK    9  A    between atoms: C_21  and  C_25
REMARK   10  A    between atoms: C_25  and  C_28
REMARK   11  A    between atoms: C_31  and  C_32
REMARK                            x       y       z     vdW  Elec       q    Type
REMARK                         _______ _______ _______ _____ _____    ______ ____
ROOT
ATOM     12  N   UNL     1      33.226  -3.289  11.556  0.00  0.00    +0.000 N 
ATOM     33  H   UNL     1      33.658  -2.436  11.209  0.00  0.00    +0.000 HD
ENDROOT
BRANCH  12  19
ATOM     19  C   UNL     1      33.759  -4.457  11.035  0.00  0.00    +0.000 A 
ATOM     22  C   UNL     1      34.946  -4.973  11.554  0.00  0.00    +0.000 A 
ATOM     23  C   UNL     1      33.109  -5.116   9.991  0.00  0.00    +0.000 A 
ATOM     24  C   UNL     1      34.833  -6.809   9.986  0.00  0.00    +0.000 A 
ATOM     26  C   UNL     1      35.484  -6.149  11.029  0.00  0.00    +0.000 A 
ATOM     27  C   UNL     1      33.646  -6.292   9.467  0.00  0.00    +0.000 A 
BRANCH  24   1
ATOM      1  S   UNL     1      35.506  -8.279   9.329  0.00  0.00    +0.000 S 
ATOM      9  O   UNL     1      34.638  -8.735   8.250  0.00  0.00    +0.000 OA
ATOM     10  O   UNL     1      36.921  -8.050   9.063  0.00  0.00    +0.000 OA
BRANCH   1  14
ATOM     11  O   UNL     1      32.007 -10.071  11.526  0.00  0.00    +0.000 OA
ATOM     14  N   UNL     1      35.351  -9.341  10.657  0.00  0.00    +0.000 N 
ATOM     15  N   UNL     1      32.936  -9.421  10.724  0.00  0.00    +0.000 NA
ATOM     29  C   UNL     1      34.127  -9.791  11.203  0.00  0.00    +0.000 A 
ATOM     30  C   UNL     1      34.012 -10.667  12.297  0.00  0.00    +0.000 A 
ATOM     31  C   UNL     1      32.659 -10.810  12.459  0.00  0.00    +0.000 A 
ATOM     32  C   UNL     1      31.824 -11.570  13.398  0.00  0.00    +0.000 C 
ATOM     35  H   UNL     1      36.207  -9.613  11.159  0.00  0.00    +0.000 HD
ENDBRANCH   1  14
ENDBRANCH  24   1
ENDBRANCH  12  19
BRANCH  12  16
ATOM     16  C   UNL     1      32.069  -3.088  12.445  0.00  0.00    +0.000 C 
BRANCH  16  17
ATOM      2  F   UNL     1      31.711  -5.381  13.051  0.00  0.00    +0.000 F 
ATOM      3  F   UNL     1      33.288  -4.323  14.106  0.00  0.00    +0.000 F 
ATOM      4  F   UNL     1      31.200  -3.871  14.523  0.00  0.00    +0.000 F 
ATOM     17  C   UNL     1      32.077  -4.173  13.534  0.00  0.00    +0.000 C 
ENDBRANCH  16  17
BRANCH  16  18
ATOM      5  F   UNL     1      32.965  -1.781  14.250  0.00  0.00    +0.000 F 
ATOM      6  F   UNL     1      31.080  -1.122  13.377  0.00  0.00    +0.000 F 
ATOM      7  F   UNL     1      32.944  -0.871  12.274  0.00  0.00    +0.000 F 
ATOM     18  C   UNL     1      32.268  -1.707  13.095  0.00  0.00    +0.000 C 
ENDBRANCH  16  18
BRANCH  16  13
ATOM      8  O   UNL     1      31.571  -1.902   9.739  0.00  0.00    +0.000 OA
ATOM     13  N   UNL     1      30.850  -3.063  11.628  0.00  0.00    +0.000 N 
ATOM     20  C   UNL     1      30.701  -2.488  10.374  0.00  0.00    +0.000 C 
ATOM     34  H   UNL     1      30.073  -3.623  11.959  0.00  0.00    +0.000 HD
BRANCH  20  21
ATOM     21  C   UNL     1      29.276  -2.646   9.865  0.00  0.00    +0.000 C 
BRANCH  21  25
ATOM     25  C   UNL     1      28.266  -1.740  10.566  0.00  0.00    +0.000 C 
ATOM     28  C   UNL     1      28.313  -0.309  10.051  0.00  0.00    +0.000 C 
ENDBRANCH  21  25
ENDBRANCH  20  21
ENDBRANCH  16  13
ENDBRANCH  12  16
TORSDOF 9
ENDMDL
MODEL 4
REMARK VINA RESULT:      -7.3     17.818     20.278
REMARK  Name = 536471
REMARK  11 active torsions:
REMARK  status: ('A' for Active; 'I' for Inactive)
REMARK    1  A    between atoms: S_1  and  N_14
REMARK    2  A    between atoms: S_1  and  C_24
REMARK    3  A    between atoms: N_12  and  C_16
REMARK    4  A    between atoms: N_12  and  C_19
REMARK    5  A    between atoms: N_13  and  C_16
REMARK    6  A    between atoms: C_16  and  C_17
REMARK    7  A    between atoms: C_16  and  C_18
REMARK    8  A    between atoms: C_20  and  C_21
REMARK    9  A    between atoms: C_21  and  C_25
REMARK   10  A    between atoms: C_25  and  C_28
REMARK   11  A    between atoms: C_31  and  C_32
REMARK                            x       y       z     vdW  Elec       q    Type
REMARK                         _______ _______ _______ _____ _____    ______ ____
ROOT
ATOM     12  N   UNL     1      23.522   7.572  -8.811  0.00  0.00    +0.000 N 
ATOM     33  H   UNL     1      23.510   7.523  -9.827  0.00  0.00    +0.000 HD
ENDROOT
BRANCH  12  19
ATOM     19  C   UNL     1      23.705   6.351  -8.180  0.00  0.00    +0.000 A 
ATOM     22  C   UNL     1      24.783   6.169  -7.315  0.00  0.00    +0.000 A 
ATOM     23  C   UNL     1      22.811   5.306  -8.410  0.00  0.00    +0.000 A 
ATOM     24  C   UNL     1      24.073   3.895  -6.909  0.00  0.00    +0.000 A 
ATOM     26  C   UNL     1      24.968   4.940  -6.679  0.00  0.00    +0.000 A 
ATOM     27  C   UNL     1      22.994   4.078  -7.775  0.00  0.00    +0.000 A 
BRANCH  24   1
ATOM      1  S   UNL     1      24.304   2.358  -6.114  0.00  0.00    +0.000 S 
ATOM      9  O   UNL     1      25.668   2.311  -5.603  0.00  0.00    +0.000 OA
ATOM     10  O   UNL     1      23.188   2.148  -5.201  0.00  0.00    +0.000 OA
BRANCH   1  14
ATOM     11  O   UNL     1      24.563  -2.118  -6.541  0.00  0.00    +0.000 OA
ATOM     14  N   UNL     1      24.163   1.277  -7.428  0.00  0.00    +0.000 N 
ATOM     15  N   UNL     1      24.522  -0.773  -6.197  0.00  0.00    +0.000 NA
ATOM     29  C   UNL     1      24.281  -0.130  -7.344  0.00  0.00    +0.000 A 
ATOM     30  C   UNL     1      24.162  -1.010  -8.433  0.00  0.00    +0.000 A 
ATOM     31  C   UNL     1      24.348  -2.247  -7.875  0.00  0.00    +0.000 A 
ATOM     32  C   UNL     1      24.357  -3.613  -8.413  0.00  0.00    +0.000 C 
ATOM     35  H   UNL     1      24.071   1.675  -8.372  0.00  0.00    +0.000 HD
ENDBRANCH   1  14
ENDBRANCH  24   1
ENDBRANCH  12  19
BRANCH  12  16
ATOM     16  C   UNL     1      23.240   8.900  -8.243  0.00  0.00    +0.000 C 
BRANCH  16  17
ATOM      2  F   UNL     1      23.315   9.616 -10.531  0.00  0.00    +0.000 F 
ATOM      3  F   UNL     1      21.371   9.635  -9.561  0.00  0.00    +0.000 F 
ATOM      4  F   UNL     1      22.871  11.120  -9.031  0.00  0.00    +0.000 F 
ATOM     17  C   UNL     1      22.690   9.815  -9.349  0.00  0.00    +0.000 C 
ENDBRANCH  16  17
BRANCH  16  18
ATOM      5  F   UNL     1      22.663   8.174  -6.027  0.00  0.00    +0.000 F 
ATOM      6  F   UNL     1      21.202   7.825  -7.606  0.00  0.00    +0.000 F 
ATOM      7  F   UNL     1      21.539   9.843  -6.855  0.00  0.00    +0.000 F 
ATOM     18  C   UNL     1      22.156   8.682  -7.172  0.00  0.00    +0.000 C 
ENDBRANCH  16  18
BRANCH  16  13
ATOM      8  O   UNL     1      26.066   8.989  -9.236  0.00  0.00    +0.000 OA
ATOM     13  N   UNL     1      24.459   9.401  -7.597  0.00  0.00    +0.000 N 
ATOM     20  C   UNL     1      25.741   9.406  -8.129  0.00  0.00    +0.000 C 
ATOM     34  H   UNL     1      24.335   9.900  -6.724  0.00  0.00    +0.000 HD
BRANCH  20  21
ATOM     21  C   UNL     1      26.742   9.983  -7.140  0.00  0.00    +0.000 C 
BRANCH  21  25
ATOM     25  C   UNL     1      27.465   8.926  -6.307  0.00  0.00    +0.000 C 
ATOM     28  C   UNL     1      26.786   8.676  -4.968  0.00  0.00    +0.000 C 
ENDBRANCH  21  25
ENDBRANCH  20  21
ENDBRANCH  16  13
ENDBRANCH  12  16
TORSDOF 9
ENDMDL
MODEL 5
REMARK VINA RESULT:      -7.3      6.371      9.380
REMARK  Name = 536471
REMARK  11 active torsions:
REMARK  status: ('A' for Active; 'I' for Inactive)
REMARK    1  A    between atoms: S_1  and  N_14
REMARK    2  A    between atoms: S_1  and  C_24
REMARK    3  A    between atoms: N_12  and  C_16
REMARK    4  A    between atoms: N_12  and  C_19
REMARK    5  A    between atoms: N_13  and  C_16
REMARK    6  A    between atoms: C_16  and  C_17
REMARK    7  A    between atoms: C_16  and  C_18
REMARK    8  A    between atoms: C_20  and  C_21
REMARK    9  A    between atoms: C_21  and  C_25
REMARK   10  A    between atoms: C_25  and  C_28
REMARK   11  A    between atoms: C_31  and  C_32
REMARK                            x       y       z     vdW  Elec       q    Type
REMARK                         _______ _______ _______ _____ _____    ______ ____
ROOT
ATOM     12  N   UNL     1      33.296  -2.219  11.146  0.00  0.00    +0.000 N 
ATOM     33  H   UNL     1      33.792  -1.863  10.332  0.00  0.00    +0.000 HD
ENDROOT
BRANCH  12  19
ATOM     19  C   UNL     1      33.704  -1.673  12.353  0.00  0.00    +0.000 A 
ATOM     22  C   UNL     1      32.781  -1.016  13.167  0.00  0.00    +0.000 A 
ATOM     23  C   UNL     1      35.036  -1.779  12.753  0.00  0.00    +0.000 A 
ATOM     24  C   UNL     1      34.523  -0.573  14.782  0.00  0.00    +0.000 A 
ATOM     26  C   UNL     1      33.191  -0.466  14.382  0.00  0.00    +0.000 A 
ATOM     27  C   UNL     1      35.446  -1.229  13.967  0.00  0.00    +0.000 A 
BRANCH  24   1
ATOM      1  S   UNL     1      35.036   0.117  16.301  0.00  0.00    +0.000 S 
ATOM      9  O   UNL     1      36.305   0.800  16.086  0.00  0.00    +0.000 OA
ATOM     10  O   UNL     1      33.912   0.853  16.867  0.00  0.00    +0.000 OA
BRANCH   1  14
ATOM     11  O   UNL     1      35.782  -0.656  20.675  0.00  0.00    +0.000 OA
ATOM     14  N   UNL     1      35.309  -1.288  17.232  0.00  0.00    +0.000 N 
ATOM     15  N   UNL     1      35.541  -0.207  19.383  0.00  0.00    +0.000 NA
ATOM     29  C   UNL     1      35.527  -1.311  18.630  0.00  0.00    +0.000 A 
ATOM     30  C   UNL     1      35.750  -2.475  19.386  0.00  0.00    +0.000 A 
ATOM     31  C   UNL     1      35.904  -2.008  20.665  0.00  0.00    +0.000 A 
ATOM     32  C   UNL     1      36.162  -2.655  21.957  0.00  0.00    +0.000 C 
ATOM     35  H   UNL     1      35.410  -2.183  16.736  0.00  0.00    +0.000 HD
ENDBRANCH   1  14
ENDBRANCH  24   1
ENDBRANCH  12  19
BRANCH  12  16
ATOM     16  C   UNL     1      32.340  -3.304  10.871  0.00  0.00    +0.000 C 
BRANCH  16  17
ATOM      2  F   UNL     1      33.095  -2.958   8.621  0.00  0.00    +0.000 F 
ATOM      3  F   UNL     1      33.537  -4.886   9.518  0.00  0.00    +0.000 F 
ATOM      4  F   UNL     1      31.501  -4.398   8.925  0.00  0.00    +0.000 F 
ATOM     17  C   UNL     1      32.629  -3.891   9.480  0.00  0.00    +0.000 C 
ENDBRANCH  16  17
BRANCH  16  18
ATOM      5  F   UNL     1      32.086  -4.031  13.146  0.00  0.00    +0.000 F 
ATOM      6  F   UNL     1      33.921  -4.595  12.115  0.00  0.00    +0.000 F 
ATOM      7  F   UNL     1      32.035  -5.560  11.599  0.00  0.00    +0.000 F 
ATOM     18  C   UNL     1      32.595  -4.378  11.944  0.00  0.00    +0.000 C 
ENDBRANCH  16  18
BRANCH  16  13
ATOM      8  O   UNL     1      31.056  -0.854   9.719  0.00  0.00    +0.000 OA
ATOM     13  N   UNL     1      30.978  -2.779  11.032  0.00  0.00    +0.000 N 
ATOM     20  C   UNL     1      30.458  -1.627  10.460  0.00  0.00    +0.000 C 
ATOM     34  H   UNL     1      30.318  -3.378  11.514  0.00  0.00    +0.000 HD
BRANCH  20  21
ATOM     21  C   UNL     1      29.016  -1.405  10.890  0.00  0.00    +0.000 C 
BRANCH  21  25
ATOM     25  C   UNL     1      27.995  -2.147  10.030  0.00  0.00    +0.000 C 
ATOM     28  C   UNL     1      27.445  -1.284   8.903  0.00  0.00    +0.000 C 
ENDBRANCH  21  25
ENDBRANCH  20  21
ENDBRANCH  16  13
ENDBRANCH  12  16
TORSDOF 9
ENDMDL
MODEL 6
REMARK VINA RESULT:      -7.2      2.115      3.509
REMARK  Name = 536471
REMARK  11 active torsions:
REMARK  status: ('A' for Active; 'I' for Inactive)
REMARK    1  A    between atoms: S_1  and  N_14
REMARK    2  A    between atoms: S_1  and  C_24
REMARK    3  A    between atoms: N_12  and  C_16
REMARK    4  A    between atoms: N_12  and  C_19
REMARK    5  A    between atoms: N_13  and  C_16
REMARK    6  A    between atoms: C_16  and  C_17
REMARK    7  A    between atoms: C_16  and  C_18
REMARK    8  A    between atoms: C_20  and  C_21
REMARK    9  A    between atoms: C_21  and  C_25
REMARK   10  A    between atoms: C_25  and  C_28
REMARK   11  A    between atoms: C_31  and  C_32
REMARK                            x       y       z     vdW  Elec       q    Type
REMARK                         _______ _______ _______ _____ _____    ______ ____
ROOT
ATOM     12  N   UNL     1      24.863  -4.321   7.669  0.00  0.00    +0.000 N 
ATOM     33  H   UNL     1      25.172  -4.997   6.975  0.00  0.00    +0.000 HD
ENDROOT
BRANCH  12  19
ATOM     19  C   UNL     1      25.806  -3.357   7.992  0.00  0.00    +0.000 A 
ATOM     22  C   UNL     1      25.694  -2.070   7.468  0.00  0.00    +0.000 A 
ATOM     23  C   UNL     1      26.866  -3.675   8.841  0.00  0.00    +0.000 A 
ATOM     24  C   UNL     1      27.702  -1.417   8.643  0.00  0.00    +0.000 A 
ATOM     26  C   UNL     1      26.643  -1.099   7.793  0.00  0.00    +0.000 A 
ATOM     27  C   UNL     1      27.814  -2.705   9.167  0.00  0.00    +0.000 A 
BRANCH  24   1
ATOM      1  S   UNL     1      28.890  -0.204   9.048  0.00  0.00    +0.000 S 
ATOM      9  O   UNL     1      29.351   0.413   7.810  0.00  0.00    +0.000 OA
ATOM     10  O   UNL     1      28.338   0.635  10.105  0.00  0.00    +0.000 OA
BRANCH   1  14
ATOM     11  O   UNL     1      33.306   0.409   9.685  0.00  0.00    +0.000 OA
ATOM     14  N   UNL     1      30.144  -1.165   9.694  0.00  0.00    +0.000 N 
ATOM     15  N   UNL     1      31.945   0.423   9.406  0.00  0.00    +0.000 NA
ATOM     29  C   UNL     1      31.498  -0.772   9.806  0.00  0.00    +0.000 A 
ATOM     30  C   UNL     1      32.523  -1.572  10.341  0.00  0.00    +0.000 A 
ATOM     31  C   UNL     1      33.638  -0.783  10.242  0.00  0.00    +0.000 A 
ATOM     32  C   UNL     1      35.049  -0.970  10.603  0.00  0.00    +0.000 C 
ATOM     35  H   UNL     1      29.925  -2.138   9.946  0.00  0.00    +0.000 HD
ENDBRANCH   1  14
ENDBRANCH  24   1
ENDBRANCH  12  19
BRANCH  12  16
ATOM     16  C   UNL     1      23.534  -4.578   8.247  0.00  0.00    +0.000 C 
BRANCH  16  17
ATOM      2  F   UNL     1      24.524  -3.153   9.902  0.00  0.00    +0.000 F 
ATOM      3  F   UNL     1      22.353  -3.208   9.827  0.00  0.00    +0.000 F 
ATOM      4  F   UNL     1      23.464  -4.910  10.606  0.00  0.00    +0.000 F 
ATOM     17  C   UNL     1      23.463  -3.952   9.648  0.00  0.00    +0.000 C 
ENDBRANCH  16  17
BRANCH  16  18
ATOM      5  F   UNL     1      22.920  -3.893   6.028  0.00  0.00    +0.000 F 
ATOM      6  F   UNL     1      22.353  -2.581   7.672  0.00  0.00    +0.000 F 
ATOM      7  F   UNL     1      21.312  -4.473   7.375  0.00  0.00    +0.000 F 
ATOM     18  C   UNL     1      22.525  -3.877   7.320  0.00  0.00    +0.000 C 
ENDBRANCH  16  18
BRANCH  16  13
ATOM      8  O   UNL     1      25.263  -6.827   7.283  0.00  0.00    +0.000 OA
ATOM     13  N   UNL     1      23.285  -6.025   8.220  0.00  0.00    +0.000 N 
ATOM     20  C   UNL     1      24.145  -7.008   7.752  0.00  0.00    +0.000 C 
ATOM     34  H   UNL     1      22.451  -6.348   8.697  0.00  0.00    +0.000 HD
BRANCH  20  21
ATOM     21  C   UNL     1      23.514  -8.388   7.867  0.00  0.00    +0.000 C 
BRANCH  21  25
ATOM     25  C   UNL     1      22.271  -8.571   6.998  0.00  0.00    +0.000 C 
ATOM     28  C   UNL     1      22.212  -7.575   5.849  0.00  0.00    +0.000 C 
ENDBRANCH  21  25
ENDBRANCH  20  21
ENDBRANCH  16  13
ENDBRANCH  12  16
TORSDOF 9
ENDMDL
MODEL 7
REMARK VINA RESULT:      -7.2      4.925      8.932
REMARK  Name = 536471
REMARK  11 active torsions:
REMARK  status: ('A' for Active; 'I' for Inactive)
REMARK    1  A    between atoms: S_1  and  N_14
REMARK    2  A    between atoms: S_1  and  C_24
REMARK    3  A    between atoms: N_12  and  C_16
REMARK    4  A    between atoms: N_12  and  C_19
REMARK    5  A    between atoms: N_13  and  C_16
REMARK    6  A    between atoms: C_16  and  C_17
REMARK    7  A    between atoms: C_16  and  C_18
REMARK    8  A    between atoms: C_20  and  C_21
REMARK    9  A    between atoms: C_21  and  C_25
REMARK   10  A    between atoms: C_25  and  C_28
REMARK   11  A    between atoms: C_31  and  C_32
REMARK                            x       y       z     vdW  Elec       q    Type
REMARK                         _______ _______ _______ _____ _____    ______ ____
ROOT
ATOM     12  N   UNL     1      33.580  -3.843   9.890  0.00  0.00    +0.000 N 
ATOM     33  H   UNL     1      34.315  -3.542   9.255  0.00  0.00    +0.000 HD
ENDROOT
BRANCH  12  19
ATOM     19  C   UNL     1      32.414  -3.096   9.815  0.00  0.00    +0.000 A 
ATOM     22  C   UNL     1      31.175  -3.732   9.869  0.00  0.00    +0.000 A 
ATOM     23  C   UNL     1      32.481  -1.709   9.683  0.00  0.00    +0.000 A 
ATOM     24  C   UNL     1      30.069  -1.594   9.662  0.00  0.00    +0.000 A 
ATOM     26  C   UNL     1      30.001  -2.981   9.793  0.00  0.00    +0.000 A 
ATOM     27  C   UNL     1      31.309  -0.957   9.607  0.00  0.00    +0.000 A 
BRANCH  24   1
ATOM      1  S   UNL     1      28.600  -0.654   9.566  0.00  0.00    +0.000 S 
ATOM      9  O   UNL     1      28.561   0.248  10.710  0.00  0.00    +0.000 OA
ATOM     10  O   UNL     1      28.501  -0.108   8.218  0.00  0.00    +0.000 OA
BRANCH   1  14
ATOM     11  O   UNL     1      26.165  -3.169   6.733  0.00  0.00    +0.000 OA
ATOM     14  N   UNL     1      27.414  -1.865   9.768  0.00  0.00    +0.000 N 
ATOM     15  N   UNL     1      27.003  -2.306   7.426  0.00  0.00    +0.000 NA
ATOM     29  C   UNL     1      26.756  -2.546   8.717  0.00  0.00    +0.000 A 
ATOM     30  C   UNL     1      25.781  -3.542   8.896  0.00  0.00    +0.000 A 
ATOM     31  C   UNL     1      25.442  -3.900   7.618  0.00  0.00    +0.000 A 
ATOM     32  C   UNL     1      24.497  -4.872   7.053  0.00  0.00    +0.000 C 
ATOM     35  H   UNL     1      27.082  -2.060  10.722  0.00  0.00    +0.000 HD
ENDBRANCH   1  14
ENDBRANCH  24   1
ENDBRANCH  12  19
BRANCH  12  16
ATOM     16  C   UNL     1      33.954  -4.926  10.815  0.00  0.00    +0.000 C 
BRANCH  16  17
ATOM      2  F   UNL     1      33.272  -6.267   8.947  0.00  0.00    +0.000 F 
ATOM      3  F   UNL     1      34.135  -7.314  10.643  0.00  0.00    +0.000 F 
ATOM      4  F   UNL     1      32.136  -6.467  10.784  0.00  0.00    +0.000 F 
ATOM     17  C   UNL     1      33.381  -6.253  10.294  0.00  0.00    +0.000 C 
ENDBRANCH  16  17
BRANCH  16  18
ATOM      5  F   UNL     1      35.957  -5.845   9.861  0.00  0.00    +0.000 F 
ATOM      6  F   UNL     1      35.982  -5.391  11.992  0.00  0.00    +0.000 F 
ATOM      7  F   UNL     1      36.028  -3.775  10.529  0.00  0.00    +0.000 F 
ATOM     18  C   UNL     1      35.491  -4.988  10.796  0.00  0.00    +0.000 C 
ENDBRANCH  16  18
BRANCH  16  13
ATOM      8  O   UNL     1      34.499  -2.474  12.449  0.00  0.00    +0.000 OA
ATOM     13  N   UNL     1      33.504  -4.564  12.165  0.00  0.00    +0.000 N 
ATOM     20  C   UNL     1      33.805  -3.399  12.857  0.00  0.00    +0.000 C 
ATOM     34  H   UNL     1      32.811  -5.171  12.588  0.00  0.00    +0.000 HD
BRANCH  20  21
ATOM     21  C   UNL     1      33.174  -3.407  14.242  0.00  0.00    +0.000 C 
BRANCH  21  25
ATOM     25  C   UNL     1      31.651  -3.296  14.225  0.00  0.00    +0.000 C 
ATOM     28  C   UNL     1      31.157  -2.183  13.312  0.00  0.00    +0.000 C 
ENDBRANCH  21  25
ENDBRANCH  20  21
ENDBRANCH  16  13
ENDBRANCH  12  16
TORSDOF 9
ENDMDL
MODEL 8
REMARK VINA RESULT:      -7.1      6.341      9.207
REMARK  Name = 536471
REMARK  11 active torsions:
REMARK  status: ('A' for Active; 'I' for Inactive)
REMARK    1  A    between atoms: S_1  and  N_14
REMARK    2  A    between atoms: S_1  and  C_24
REMARK    3  A    between atoms: N_12  and  C_16
REMARK    4  A    between atoms: N_12  and  C_19
REMARK    5  A    between atoms: N_13  and  C_16
REMARK    6  A    between atoms: C_16  and  C_17
REMARK    7  A    between atoms: C_16  and  C_18
REMARK    8  A    between atoms: C_20  and  C_21
REMARK    9  A    between atoms: C_21  and  C_25
REMARK   10  A    between atoms: C_25  and  C_28
REMARK   11  A    between atoms: C_31  and  C_32
REMARK                            x       y       z     vdW  Elec       q    Type
REMARK                         _______ _______ _______ _____ _____    ______ ____
ROOT
ATOM     12  N   UNL     1      31.098  -3.312  11.945  0.00  0.00    +0.000 N 
ATOM     33  H   UNL     1      30.134  -3.143  12.218  0.00  0.00    +0.000 HD
ENDROOT
BRANCH  12  19
ATOM     19  C   UNL     1      31.939  -3.661  12.990  0.00  0.00    +0.000 A 
ATOM     22  C   UNL     1      32.651  -2.674  13.671  0.00  0.00    +0.000 A 
ATOM     23  C   UNL     1      32.075  -4.999  13.361  0.00  0.00    +0.000 A 
ATOM     24  C   UNL     1      33.632  -4.363  15.094  0.00  0.00    +0.000 A 
ATOM     26  C   UNL     1      33.498  -3.024  14.723  0.00  0.00    +0.000 A 
ATOM     27  C   UNL     1      32.920  -5.350  14.412  0.00  0.00    +0.000 A 
BRANCH  24   1
ATOM      1  S   UNL     1      34.692  -4.802  16.410  0.00  0.00    +0.000 S 
ATOM      9  O   UNL     1      34.078  -5.904  17.141  0.00  0.00    +0.000 OA
ATOM     10  O   UNL     1      36.038  -4.959  15.873  0.00  0.00    +0.000 OA
BRANCH   1  14
ATOM     11  O   UNL     1      36.111  -3.770  20.558  0.00  0.00    +0.000 OA
ATOM     14  N   UNL     1      34.634  -3.392  17.372  0.00  0.00    +0.000 N 
ATOM     15  N   UNL     1      35.756  -4.286  19.318  0.00  0.00    +0.000 NA
ATOM     29  C   UNL     1      35.152  -3.278  18.683  0.00  0.00    +0.000 A 
ATOM     30  C   UNL     1      35.099  -2.111  19.465  0.00  0.00    +0.000 A 
ATOM     31  C   UNL     1      35.715  -2.474  20.634  0.00  0.00    +0.000 A 
ATOM     32  C   UNL     1      36.014  -1.768  21.886  0.00  0.00    +0.000 C 
ATOM     35  H   UNL     1      34.108  -2.585  17.012  0.00  0.00    +0.000 HD
ENDBRANCH   1  14
ENDBRANCH  24   1
ENDBRANCH  12  19
BRANCH  12  16
ATOM     16  C   UNL     1      31.405  -3.047  10.530  0.00  0.00    +0.000 C 
BRANCH  16  17
ATOM      2  F   UNL     1      33.605  -2.120  10.766  0.00  0.00    +0.000 F 
ATOM      3  F   UNL     1      32.353  -1.288   9.198  0.00  0.00    +0.000 F 
ATOM      4  F   UNL     1      31.926  -0.847  11.286  0.00  0.00    +0.000 F 
ATOM     17  C   UNL     1      32.328  -1.822  10.435  0.00  0.00    +0.000 C 
ENDBRANCH  16  17
BRANCH  16  18
ATOM      5  F   UNL     1      33.371  -4.426  10.580  0.00  0.00    +0.000 F 
ATOM      6  F   UNL     1      32.330  -4.240   8.676  0.00  0.00    +0.000 F 
ATOM      7  F   UNL     1      31.460  -5.423  10.286  0.00  0.00    +0.000 F 
ATOM     18  C   UNL     1      32.151  -4.292  10.016  0.00  0.00    +0.000 C 
ENDBRANCH  16  18
BRANCH  16  13
ATOM      8  O   UNL     1      28.887  -1.597  11.260  0.00  0.00    +0.000 OA
ATOM     13  N   UNL     1      30.142  -2.908   9.796  0.00  0.00    +0.000 N 
ATOM     20  C   UNL     1      29.013  -2.213  10.207  0.00  0.00    +0.000 C 
ATOM     34  H   UNL     1      30.133  -3.253   8.843  0.00  0.00    +0.000 HD
BRANCH  20  21
ATOM     21  C   UNL     1      27.896  -2.327   9.181  0.00  0.00    +0.000 C 
BRANCH  21  25
ATOM     25  C   UNL     1      27.667  -1.049   8.375  0.00  0.00    +0.000 C 
ATOM     28  C   UNL     1      26.621  -1.227   7.285  0.00  0.00    +0.000 C 
ENDBRANCH  21  25
ENDBRANCH  20  21
ENDBRANCH  16  13
ENDBRANCH  12  16
TORSDOF 9
ENDMDL
MODEL 9
REMARK VINA RESULT:      -7.1      6.956     10.072
REMARK  Name = 536471
REMARK  11 active torsions:
REMARK  status: ('A' for Active; 'I' for Inactive)
REMARK    1  A    between atoms: S_1  and  N_14
REMARK    2  A    between atoms: S_1  and  C_24
REMARK    3  A    between atoms: N_12  and  C_16
REMARK    4  A    between atoms: N_12  and  C_19
REMARK    5  A    between atoms: N_13  and  C_16
REMARK    6  A    between atoms: C_16  and  C_17
REMARK    7  A    between atoms: C_16  and  C_18
REMARK    8  A    between atoms: C_20  and  C_21
REMARK    9  A    between atoms: C_21  and  C_25
REMARK   10  A    between atoms: C_25  and  C_28
REMARK   11  A    between atoms: C_31  and  C_32
REMARK                            x       y       z     vdW  Elec       q    Type
REMARK                         _______ _______ _______ _____ _____    ______ ____
ROOT
ATOM     12  N   UNL     1      33.487  -3.773  11.861  0.00  0.00    +0.000 N 
ATOM     33  H   UNL     1      34.435  -3.530  11.587  0.00  0.00    +0.000 HD
ENDROOT
BRANCH  12  19
ATOM     19  C   UNL     1      33.275  -5.128  12.061  0.00  0.00    +0.000 A 
ATOM     22  C   UNL     1      32.914  -5.942  10.988  0.00  0.00    +0.000 A 
ATOM     23  C   UNL     1      33.422  -5.677  13.335  0.00  0.00    +0.000 A 
ATOM     24  C   UNL     1      32.849  -7.856  12.463  0.00  0.00    +0.000 A 
ATOM     26  C   UNL     1      32.700  -7.307  11.189  0.00  0.00    +0.000 A 
ATOM     27  C   UNL     1      33.209  -7.040  13.536  0.00  0.00    +0.000 A 
BRANCH  24   1
ATOM      1  S   UNL     1      32.580  -9.562  12.714  0.00  0.00    +0.000 S 
ATOM      9  O   UNL     1      31.726 -10.052  11.639  0.00  0.00    +0.000 OA
ATOM     10  O   UNL     1      33.872 -10.194  12.949  0.00  0.00    +0.000 OA
BRANCH   1  14
ATOM     11  O   UNL     1      30.222 -12.659  14.980  0.00  0.00    +0.000 OA
ATOM     14  N   UNL     1      31.691  -9.550  14.171  0.00  0.00    +0.000 N 
ATOM     15  N   UNL     1      30.988 -11.864  14.137  0.00  0.00    +0.000 NA
ATOM     29  C   UNL     1      31.007 -10.661  14.719  0.00  0.00    +0.000 A 
ATOM     30  C   UNL     1      30.278 -10.640  15.921  0.00  0.00    +0.000 A 
ATOM     31  C   UNL     1      29.805 -11.919  16.039  0.00  0.00    +0.000 A 
ATOM     32  C   UNL     1      28.979 -12.609  17.037  0.00  0.00    +0.000 C 
ATOM     35  H   UNL     1      31.564  -8.649  14.652  0.00  0.00    +0.000 HD
ENDBRANCH   1  14
ENDBRANCH  24   1
ENDBRANCH  12  19
BRANCH  12  16
ATOM     16  C   UNL     1      32.533  -2.651  11.879  0.00  0.00    +0.000 C 
BRANCH  16  17
ATOM      2  F   UNL     1      33.128  -2.540  14.200  0.00  0.00    +0.000 F 
ATOM      3  F   UNL     1      31.636  -1.124  13.502  0.00  0.00    +0.000 F 
ATOM      4  F   UNL     1      31.128  -3.229  13.717  0.00  0.00    +0.000 F 
ATOM     17  C   UNL     1      32.107  -2.376  13.330  0.00  0.00    +0.000 C 
ENDBRANCH  16  17
BRANCH  16  18
ATOM      5  F   UNL     1      33.912  -0.732  12.306  0.00  0.00    +0.000 F 
ATOM      6  F   UNL     1      32.467  -0.583  10.682  0.00  0.00    +0.000 F 
ATOM      7  F   UNL     1      34.252  -1.812  10.448  0.00  0.00    +0.000 F 
ATOM     18  C   UNL     1      33.298  -1.434  11.329  0.00  0.00    +0.000 C 
ENDBRANCH  16  18
BRANCH  16  13
ATOM      8  O   UNL     1      29.822  -1.401  11.623  0.00  0.00    +0.000 OA
ATOM     13  N   UNL     1      31.421  -2.969  10.975  0.00  0.00    +0.000 N 
ATOM     20  C   UNL     1      30.187  -2.336  10.920  0.00  0.00    +0.000 C 
ATOM     34  H   UNL     1      31.615  -3.638  10.239  0.00  0.00    +0.000 HD
BRANCH  20  21
ATOM     21  C   UNL     1      29.292  -2.973   9.867  0.00  0.00    +0.000 C 
BRANCH  21  25
ATOM     25  C   UNL     1      27.945  -2.272   9.697  0.00  0.00    +0.000 C 
ATOM     28  C   UNL     1      27.003  -3.035   8.777  0.00  0.00    +0.000 C 
ENDBRANCH  21  25
ENDBRANCH  20  21
ENDBRANCH  16  13
ENDBRANCH  12  16
TORSDOF 9
ENDMDL
MODEL 10
REMARK VINA RESULT:      -7.1      6.488      9.260
REMARK  Name = 536471
REMARK  11 active torsions:
REMARK  status: ('A' for Active; 'I' for Inactive)
REMARK    1  A    between atoms: S_1  and  N_14
REMARK    2  A    between atoms: S_1  and  C_24
REMARK    3  A    between atoms: N_12  and  C_16
REMARK    4  A    between atoms: N_12  and  C_19
REMARK    5  A    between atoms: N_13  and  C_16
REMARK    6  A    between atoms: C_16  and  C_17
REMARK    7  A    between atoms: C_16  and  C_18
REMARK    8  A    between atoms: C_20  and  C_21
REMARK    9  A    between atoms: C_21  and  C_25
REMARK   10  A    between atoms: C_25  and  C_28
REMARK   11  A    between atoms: C_31  and  C_32
REMARK                            x       y       z     vdW  Elec       q    Type
REMARK                         _______ _______ _______ _____ _____    ______ ____
ROOT
ATOM     12  N   UNL     1      31.626  -2.973  12.161  0.00  0.00    +0.000 N 
ATOM     33  H   UNL     1      30.663  -3.014  12.486  0.00  0.00    +0.000 HD
ENDROOT
BRANCH  12  19
ATOM     19  C   UNL     1      32.527  -2.483  13.093  0.00  0.00    +0.000 A 
ATOM     22  C   UNL     1      33.400  -3.354  13.743  0.00  0.00    +0.000 A 
ATOM     23  C   UNL     1      32.559  -1.119  13.383  0.00  0.00    +0.000 A 
ATOM     24  C   UNL     1      34.340  -1.497  14.970  0.00  0.00    +0.000 A 
ATOM     26  C   UNL     1      34.307  -2.861  14.682  0.00  0.00    +0.000 A 
ATOM     27  C   UNL     1      33.465  -0.625  14.320  0.00  0.00    +0.000 A 
BRANCH  24   1
ATOM      1  S   UNL     1      35.473  -0.880  16.146  0.00  0.00    +0.000 S 
ATOM      9  O   UNL     1      34.858  -0.974  17.464  0.00  0.00    +0.000 OA
ATOM     10  O   UNL     1      36.763  -1.518  15.910  0.00  0.00    +0.000 OA
BRANCH   1  14
ATOM     11  O   UNL     1      37.747   2.683  17.701  0.00  0.00    +0.000 OA
ATOM     14  N   UNL     1      35.569   0.762  15.690  0.00  0.00    +0.000 N 
ATOM     15  N   UNL     1      37.144   1.473  17.382  0.00  0.00    +0.000 NA
ATOM     29  C   UNL     1      36.366   1.741  16.329  0.00  0.00    +0.000 A 
ATOM     30  C   UNL     1      36.437   3.091  15.944  0.00  0.00    +0.000 A 
ATOM     31  C   UNL     1      37.318   3.640  16.838  0.00  0.00    +0.000 A 
ATOM     32  C   UNL     1      37.860   4.990  17.032  0.00  0.00    +0.000 C 
ATOM     35  H   UNL     1      34.938   1.095  14.949  0.00  0.00    +0.000 HD
ENDBRANCH   1  14
ENDBRANCH  24   1
ENDBRANCH  12  19
BRANCH  12  16
ATOM     16  C   UNL     1      31.828  -3.341  10.750  0.00  0.00    +0.000 C 
BRANCH  16  17
ATOM      2  F   UNL     1      34.034  -2.400  10.764  0.00  0.00    +0.000 F 
ATOM      3  F   UNL     1      33.091  -2.661   8.824  0.00  0.00    +0.000 F 
ATOM      4  F   UNL     1      32.401  -1.100  10.173  0.00  0.00    +0.000 F 
ATOM     17  C   UNL     1      32.846  -2.379  10.119  0.00  0.00    +0.000 C 
ENDBRANCH  16  17
BRANCH  16  18
ATOM      5  F   UNL     1      31.960  -5.492  11.809  0.00  0.00    +0.000 F 
ATOM      6  F   UNL     1      33.760  -4.746  10.833  0.00  0.00    +0.000 F 
ATOM      7  F   UNL     1      32.075  -5.441   9.637  0.00  0.00    +0.000 F 
ATOM     18  C   UNL     1      32.408  -4.767  10.761  0.00  0.00    +0.000 C 
ENDBRANCH  16  18
BRANCH  16  13
ATOM      8  O   UNL     1      29.450  -1.548  11.083  0.00  0.00    +0.000 OA
ATOM     13  N   UNL     1      30.522  -3.360  10.080  0.00  0.00    +0.000 N 
ATOM     20  C   UNL     1      29.464  -2.486  10.294  0.00  0.00    +0.000 C 
ATOM     34  H   UNL     1      30.423  -4.001   9.301  0.00  0.00    +0.000 HD
BRANCH  20  21
ATOM     21  C   UNL     1      28.269  -2.851   9.426  0.00  0.00    +0.000 C 
BRANCH  21  25
ATOM     25  C   UNL     1      27.203  -1.759   9.355  0.00  0.00    +0.000 C 
ATOM     28  C   UNL     1      27.087  -1.147   7.967  0.00  0.00    +0.000 C 
ENDBRANCH  21  25
ENDBRANCH  20  21
ENDBRANCH  16  13
ENDBRANCH  12  16
TORSDOF 9
ENDMDL
