REMARK  Name = 536471
REMARK  11 active torsions:
REMARK  status: ('A' for Active; 'I' for Inactive)
REMARK    1  A    between atoms: S_1  and  N_14
REMARK    2  A    between atoms: S_1  and  C_24
REMARK    3  A    between atoms: N_12  and  C_16
REMARK    4  A    between atoms: N_12  and  C_19
REMARK    5  A    between atoms: N_13  and  C_16
REMARK    6  A    between atoms: C_16  and  C_17
REMARK    7  A    between atoms: C_16  and  C_18
REMARK    8  A    between atoms: C_20  and  C_21
REMARK    9  A    between atoms: C_21  and  C_25
REMARK   10  A    between atoms: C_25  and  C_28
REMARK   11  A    between atoms: C_31  and  C_32
REMARK                            x       y       z     vdW  Elec       q    Type
REMARK                         _______ _______ _______ _____ _____    ______ ____
ROOT
ATOM     12  N   UNL     1       2.056  -1.616  -0.540  0.00  0.00    +0.000 N 
ATOM     33  H   UNL     1       2.487  -2.330  -1.122  0.00  0.00    +0.000 HD
ENDROOT
BRANCH  12  19
ATOM     19  C   UNL     1       0.693  -1.778  -0.346  0.00  0.00    +0.000 A 
ATOM     22  C   UNL     1       0.046  -1.077   0.671  0.00  0.00    +0.000 A 
ATOM     23  C   UNL     1      -0.031  -2.643  -1.167  0.00  0.00    +0.000 A 
ATOM     24  C   UNL     1      -2.050  -2.104   0.045  0.00  0.00    +0.000 A 
ATOM     26  C   UNL     1      -1.326  -1.240   0.867  0.00  0.00    +0.000 A 
ATOM     27  C   UNL     1      -1.402  -2.806  -0.972  0.00  0.00    +0.000 A 
BRANCH  24   1
ATOM      1  S   UNL     1      -3.766  -2.309   0.291  0.00  0.00    +0.000 S 
ATOM      9  O   UNL     1      -4.149  -3.613  -0.237  0.00  0.00    +0.000 OA
ATOM     10  O   UNL     1      -4.067  -1.981   1.679  0.00  0.00    +0.000 OA
BRANCH   1  14
ATOM     11  O   UNL     1      -4.825   2.028   0.883  0.00  0.00    +0.000 OA
ATOM     14  N   UNL     1      -4.398  -1.089  -0.722  0.00  0.00    +0.000 N 
ATOM     15  N   UNL     1      -4.440   0.694   0.911  0.00  0.00    +0.000 NA
ATOM     29  C   UNL     1      -4.663   0.243  -0.327  0.00  0.00    +0.000 A 
ATOM     30  C   UNL     1      -5.183   1.240  -1.171  0.00  0.00    +0.000 A 
ATOM     31  C   UNL     1      -5.266   2.342  -0.362  0.00  0.00    +0.000 A 
ATOM     32  C   UNL     1      -5.715   3.724  -0.571  0.00  0.00    +0.000 C 
ATOM     35  H   UNL     1      -4.693  -1.355  -1.671  0.00  0.00    +0.000 HD
ENDBRANCH   1  14
ENDBRANCH  24   1
ENDBRANCH  12  19
BRANCH  12  16
ATOM     16  C   UNL     1       2.949  -0.521  -0.126  0.00  0.00    +0.000 C 
BRANCH  16  17
ATOM      2  F   UNL     1       4.419   0.090   1.668  0.00  0.00    +0.000 F 
ATOM      3  F   UNL     1       2.557  -0.886   2.215  0.00  0.00    +0.000 F 
ATOM      4  F   UNL     1       4.154  -2.027   1.275  0.00  0.00    +0.000 F 
ATOM     17  C   UNL     1       3.515  -0.832   1.268  0.00  0.00    +0.000 C 
ENDBRANCH  16  17
BRANCH  16  18
ATOM      5  F   UNL     1       4.747  -1.680  -1.218  0.00  0.00    +0.000 F 
ATOM      6  F   UNL     1       5.012   0.450  -0.844  0.00  0.00    +0.000 F 
ATOM      7  F   UNL     1       3.637  -0.225  -2.395  0.00  0.00    +0.000 F 
ATOM     18  C   UNL     1       4.096  -0.498  -1.152  0.00  0.00    +0.000 C 
ENDBRANCH  16  18
BRANCH  16  13
ATOM      8  O   UNL     1       3.840   2.290   0.407  0.00  0.00    +0.000 OA
ATOM     13  N   UNL     1       2.207   0.743  -0.207  0.00  0.00    +0.000 N 
ATOM     20  C   UNL     1       2.697   2.014   0.059  0.00  0.00    +0.000 C 
ATOM     34  H   UNL     1       1.278   0.696  -0.610  0.00  0.00    +0.000 HD
BRANCH  20  21
ATOM     21  C   UNL     1       1.611   3.066  -0.110  0.00  0.00    +0.000 C 
BRANCH  21  25
ATOM     25  C   UNL     1       2.085   4.491   0.168  0.00  0.00    +0.000 C 
ATOM     28  C   UNL     1       0.961   5.511   0.058  0.00  0.00    +0.000 C 
ENDBRANCH  21  25
ENDBRANCH  20  21
ENDBRANCH  16  13
ENDBRANCH  12  16
TORSDOF 9
