MODEL 1
REMARK VINA RESULT:      -7.4      0.000      0.000
REMARK  Name = 562945
REMARK  7 active torsions:
REMARK  status: ('A' for Active; 'I' for Inactive)
REMARK    1  A    between atoms: S_1  and  N_5
REMARK    2  A    between atoms: S_1  and  C_11
REMARK    3  A    between atoms: C_7  and  C_8
REMARK    4  A    between atoms: C_7  and  C_9
REMARK    5  A    between atoms: C_8  and  C_10
REMARK    6  A    between atoms: C_10  and  C_16
REMARK    7  A    between atoms: C_19  and  C_20
REMARK                            x       y       z     vdW  Elec       q    Type
REMARK                         _______ _______ _______ _____ _____    ______ ____
ROOT
ATOM      1  S   UNL     1      32.346  -2.587  11.998  0.00  0.00    +0.000 S 
ATOM      2  O   UNL     1      33.345  -2.542  10.937  0.00  0.00    +0.000 OA
ATOM      3  O   UNL     1      32.337  -3.728  12.905  0.00  0.00    +0.000 OA
ENDROOT
BRANCH   1   5
ATOM      4  O   UNL     1      34.332  -0.517  15.826  0.00  0.00    +0.000 OA
ATOM      5  N   UNL     1      32.464  -1.129  12.907  0.00  0.00    +0.000 N 
ATOM      6  N   UNL     1      33.255  -0.233  14.996  0.00  0.00    +0.000 NA
ATOM     17  C   UNL     1      33.392  -1.089  14.005  0.00  0.00    +0.000 A 
ATOM     18  C   UNL     1      34.486  -1.932  14.110  0.00  0.00    +0.000 A 
ATOM     19  C   UNL     1      35.058  -1.530  15.288  0.00  0.00    +0.000 A 
ATOM     20  C   UNL     1      36.240  -1.962  16.043  0.00  0.00    +0.000 C 
ATOM     21  H   UNL     1      31.652  -0.502  12.969  0.00  0.00    +0.000 HD
ENDBRANCH   1   5
BRANCH   1  11
ATOM      9  C   UNL     1      28.272  -2.239  10.071  0.00  0.00    +0.000 A 
ATOM     11  C   UNL     1      30.772  -2.453  11.253  0.00  0.00    +0.000 A 
ATOM     12  C   UNL     1      28.590  -1.421  11.145  0.00  0.00    +0.000 A 
ATOM     13  C   UNL     1      29.181  -3.162   9.579  0.00  0.00    +0.000 A 
ATOM     14  C   UNL     1      29.848  -1.528  11.739  0.00  0.00    +0.000 A 
ATOM     15  C   UNL     1      30.439  -3.270  10.173  0.00  0.00    +0.000 A 
BRANCH   9   7
ATOM      7  C   UNL     1      26.913  -2.123   9.428  0.00  0.00    +0.000 C 
BRANCH   7   8
ATOM      8  C   UNL     1      26.752  -3.099   8.262  0.00  0.00    +0.000 C 
BRANCH   8  10
ATOM     10  C   UNL     1      26.688  -2.361   6.926  0.00  0.00    +0.000 C 
ATOM     16  C   UNL     1      26.536  -0.862   7.123  0.00  0.00    +0.000 C 
ENDBRANCH   8  10
ENDBRANCH   7   8
ENDBRANCH   9   7
ENDBRANCH   1  11
TORSDOF 5
ENDMDL
MODEL 2
REMARK VINA RESULT:      -7.2      1.200      1.637
REMARK  Name = 562945
REMARK  7 active torsions:
REMARK  status: ('A' for Active; 'I' for Inactive)
REMARK    1  A    between atoms: S_1  and  N_5
REMARK    2  A    between atoms: S_1  and  C_11
REMARK    3  A    between atoms: C_7  and  C_8
REMARK    4  A    between atoms: C_7  and  C_9
REMARK    5  A    between atoms: C_8  and  C_10
REMARK    6  A    between atoms: C_10  and  C_16
REMARK    7  A    between atoms: C_19  and  C_20
REMARK                            x       y       z     vdW  Elec       q    Type
REMARK                         _______ _______ _______ _____ _____    ______ ____
ROOT
ATOM      1  S   UNL     1      32.342  -2.416  11.944  0.00  0.00    +0.000 S 
ATOM      2  O   UNL     1      32.959  -1.105  11.775  0.00  0.00    +0.000 OA
ATOM      3  O   UNL     1      33.041  -3.590  11.438  0.00  0.00    +0.000 OA
ENDROOT
BRANCH   1   5
ATOM      4  O   UNL     1      34.239  -3.153  16.274  0.00  0.00    +0.000 OA
ATOM      5  N   UNL     1      31.991  -2.630  13.617  0.00  0.00    +0.000 N 
ATOM      6  N   UNL     1      32.976  -3.288  15.712  0.00  0.00    +0.000 NA
ATOM     17  C   UNL     1      33.094  -2.708  14.535  0.00  0.00    +0.000 A 
ATOM     18  C   UNL     1      34.351  -2.192  14.264  0.00  0.00    +0.000 A 
ATOM     19  C   UNL     1      35.049  -2.497  15.403  0.00  0.00    +0.000 A 
ATOM     20  C   UNL     1      36.432  -2.268  15.839  0.00  0.00    +0.000 C 
ATOM     21  H   UNL     1      31.126  -3.107  13.897  0.00  0.00    +0.000 HD
ENDBRANCH   1   5
BRANCH   1  11
ATOM      9  C   UNL     1      28.233  -2.254  10.068  0.00  0.00    +0.000 A 
ATOM     11  C   UNL     1      30.754  -2.353  11.220  0.00  0.00    +0.000 A 
ATOM     12  C   UNL     1      29.172  -3.150   9.577  0.00  0.00    +0.000 A 
ATOM     13  C   UNL     1      28.533  -1.407  11.124  0.00  0.00    +0.000 A 
ATOM     14  C   UNL     1      30.440  -3.200  10.157  0.00  0.00    +0.000 A 
ATOM     15  C   UNL     1      29.801  -1.456  11.704  0.00  0.00    +0.000 A 
BRANCH   9   7
ATOM      7  C   UNL     1      26.863  -2.201   9.442  0.00  0.00    +0.000 C 
BRANCH   7   8
ATOM      8  C   UNL     1      26.696  -3.261   8.352  0.00  0.00    +0.000 C 
BRANCH   8  10
ATOM     10  C   UNL     1      26.382  -2.620   7.000  0.00  0.00    +0.000 C 
ATOM     16  C   UNL     1      26.732  -1.142   6.989  0.00  0.00    +0.000 C 
ENDBRANCH   8  10
ENDBRANCH   7   8
ENDBRANCH   9   7
ENDBRANCH   1  11
TORSDOF 5
ENDMDL
MODEL 3
REMARK VINA RESULT:      -6.7      2.878      3.817
REMARK  Name = 562945
REMARK  7 active torsions:
REMARK  status: ('A' for Active; 'I' for Inactive)
REMARK    1  A    between atoms: S_1  and  N_5
REMARK    2  A    between atoms: S_1  and  C_11
REMARK    3  A    between atoms: C_7  and  C_8
REMARK    4  A    between atoms: C_7  and  C_9
REMARK    5  A    between atoms: C_8  and  C_10
REMARK    6  A    between atoms: C_10  and  C_16
REMARK    7  A    between atoms: C_19  and  C_20
REMARK                            x       y       z     vdW  Elec       q    Type
REMARK                         _______ _______ _______ _____ _____    ______ ____
ROOT
ATOM      1  S   UNL     1      32.897  -2.489  11.795  0.00  0.00    +0.000 S 
ATOM      2  O   UNL     1      33.101  -3.832  12.325  0.00  0.00    +0.000 OA
ATOM      3  O   UNL     1      33.149  -1.347  12.665  0.00  0.00    +0.000 OA
ENDROOT
BRANCH   1   5
ATOM      4  O   UNL     1      33.898   0.341   8.070  0.00  0.00    +0.000 OA
ATOM      5  N   UNL     1      33.830  -2.334  10.355  0.00  0.00    +0.000 N 
ATOM      6  N   UNL     1      34.073  -1.005   8.364  0.00  0.00    +0.000 NA
ATOM     17  C   UNL     1      33.775  -1.086   9.644  0.00  0.00    +0.000 A 
ATOM     18  C   UNL     1      33.409   0.113  10.234  0.00  0.00    +0.000 A 
ATOM     19  C   UNL     1      33.503   0.997   9.191  0.00  0.00    +0.000 A 
ATOM     20  C   UNL     1      33.269   2.440   9.059  0.00  0.00    +0.000 C 
ATOM     21  H   UNL     1      34.049  -3.170   9.800  0.00  0.00    +0.000 HD
ENDBRANCH   1   5
BRANCH   1  11
ATOM      9  C   UNL     1      28.649  -2.239  10.271  0.00  0.00    +0.000 A 
ATOM     11  C   UNL     1      31.256  -2.392  11.206  0.00  0.00    +0.000 A 
ATOM     12  C   UNL     1      29.053  -1.404  11.303  0.00  0.00    +0.000 A 
ATOM     13  C   UNL     1      29.525  -3.149   9.700  0.00  0.00    +0.000 A 
ATOM     14  C   UNL     1      30.365  -1.481  11.772  0.00  0.00    +0.000 A 
ATOM     15  C   UNL     1      30.836  -3.227  10.170  0.00  0.00    +0.000 A 
BRANCH   9   7
ATOM      7  C   UNL     1      27.232  -2.156   9.763  0.00  0.00    +0.000 C 
BRANCH   7   8
ATOM      8  C   UNL     1      27.006  -3.073   8.560  0.00  0.00    +0.000 C 
BRANCH   8  10
ATOM     10  C   UNL     1      26.146  -2.391   7.497  0.00  0.00    +0.000 C 
ATOM     16  C   UNL     1      26.772  -1.090   7.023  0.00  0.00    +0.000 C 
ENDBRANCH   8  10
ENDBRANCH   7   8
ENDBRANCH   9   7
ENDBRANCH   1  11
TORSDOF 5
ENDMDL
MODEL 4
REMARK VINA RESULT:      -6.7      3.516      4.996
REMARK  Name = 562945
REMARK  7 active torsions:
REMARK  status: ('A' for Active; 'I' for Inactive)
REMARK    1  A    between atoms: S_1  and  N_5
REMARK    2  A    between atoms: S_1  and  C_11
REMARK    3  A    between atoms: C_7  and  C_8
REMARK    4  A    between atoms: C_7  and  C_9
REMARK    5  A    between atoms: C_8  and  C_10
REMARK    6  A    between atoms: C_10  and  C_16
REMARK    7  A    between atoms: C_19  and  C_20
REMARK                            x       y       z     vdW  Elec       q    Type
REMARK                         _______ _______ _______ _____ _____    ______ ____
ROOT
ATOM      1  S   UNL     1      33.454  -4.087  11.526  0.00  0.00    +0.000 S 
ATOM      2  O   UNL     1      33.386  -4.798  12.798  0.00  0.00    +0.000 OA
ATOM      3  O   UNL     1      34.501  -3.092  11.335  0.00  0.00    +0.000 OA
ENDROOT
BRANCH   1   5
ATOM      4  O   UNL     1      33.297  -8.759  10.507  0.00  0.00    +0.000 OA
ATOM      5  N   UNL     1      33.531  -5.256  10.263  0.00  0.00    +0.000 N 
ATOM      6  N   UNL     1      33.737  -7.617   9.849  0.00  0.00    +0.000 NA
ATOM     17  C   UNL     1      33.289  -6.633  10.599  0.00  0.00    +0.000 A 
ATOM     18  C   UNL     1      32.578  -7.031  11.719  0.00  0.00    +0.000 A 
ATOM     19  C   UNL     1      32.608  -8.397  11.619  0.00  0.00    +0.000 A 
ATOM     20  C   UNL     1      32.069  -9.488  12.441  0.00  0.00    +0.000 C 
ATOM     21  H   UNL     1      34.129  -5.081   9.446  0.00  0.00    +0.000 HD
ENDBRANCH   1   5
BRANCH   1  11
ATOM      9  C   UNL     1      29.444  -2.122  10.829  0.00  0.00    +0.000 A 
ATOM     11  C   UNL     1      31.905  -3.328  11.258  0.00  0.00    +0.000 A 
ATOM     12  C   UNL     1      29.916  -3.051   9.913  0.00  0.00    +0.000 A 
ATOM     13  C   UNL     1      30.181  -1.785  11.954  0.00  0.00    +0.000 A 
ATOM     14  C   UNL     1      31.153  -3.658  10.129  0.00  0.00    +0.000 A 
ATOM     15  C   UNL     1      31.419  -2.391  12.170  0.00  0.00    +0.000 A 
BRANCH   9   7
ATOM      7  C   UNL     1      28.106  -1.467  10.596  0.00  0.00    +0.000 C 
BRANCH   7   8
ATOM      8  C   UNL     1      27.470  -1.929   9.284  0.00  0.00    +0.000 C 
BRANCH   8  10
ATOM     10  C   UNL     1      27.267  -0.757   8.324  0.00  0.00    +0.000 C 
ATOM     16  C   UNL     1      26.839  -1.233   6.946  0.00  0.00    +0.000 C 
ENDBRANCH   8  10
ENDBRANCH   7   8
ENDBRANCH   9   7
ENDBRANCH   1  11
TORSDOF 5
ENDMDL
MODEL 5
REMARK VINA RESULT:      -6.4      2.875      4.256
REMARK  Name = 562945
REMARK  7 active torsions:
REMARK  status: ('A' for Active; 'I' for Inactive)
REMARK    1  A    between atoms: S_1  and  N_5
REMARK    2  A    between atoms: S_1  and  C_11
REMARK    3  A    between atoms: C_7  and  C_8
REMARK    4  A    between atoms: C_7  and  C_9
REMARK    5  A    between atoms: C_8  and  C_10
REMARK    6  A    between atoms: C_10  and  C_16
REMARK    7  A    between atoms: C_19  and  C_20
REMARK                            x       y       z     vdW  Elec       q    Type
REMARK                         _______ _______ _______ _____ _____    ______ ____
ROOT
ATOM      1  S   UNL     1      32.225  -2.383  11.885  0.00  0.00    +0.000 S 
ATOM      2  O   UNL     1      32.240  -1.434  12.993  0.00  0.00    +0.000 OA
ATOM      3  O   UNL     1      33.221  -2.244  10.830  0.00  0.00    +0.000 OA
ENDROOT
BRANCH   1   5
ATOM      4  O   UNL     1      32.978  -6.998  10.876  0.00  0.00    +0.000 OA
ATOM      5  N   UNL     1      32.299  -3.974  12.541  0.00  0.00    +0.000 N 
ATOM      6  N   UNL     1      32.397  -6.298  11.925  0.00  0.00    +0.000 NA
ATOM     17  C   UNL     1      32.715  -5.044  11.677  0.00  0.00    +0.000 A 
ATOM     18  C   UNL     1      33.470  -4.850  10.532  0.00  0.00    +0.000 A 
ATOM     19  C   UNL     1      33.615  -6.126  10.053  0.00  0.00    +0.000 A 
ATOM     20  C   UNL     1      34.288  -6.701   8.882  0.00  0.00    +0.000 C 
ATOM     21  H   UNL     1      31.684  -4.228  13.325  0.00  0.00    +0.000 HD
ENDBRANCH   1   5
BRANCH   1  11
ATOM      9  C   UNL     1      28.111  -2.257  10.017  0.00  0.00    +0.000 A 
ATOM     11  C   UNL     1      30.635  -2.334  11.164  0.00  0.00    +0.000 A 
ATOM     12  C   UNL     1      29.059  -3.138   9.519  0.00  0.00    +0.000 A 
ATOM     13  C   UNL     1      28.403  -1.413  11.078  0.00  0.00    +0.000 A 
ATOM     14  C   UNL     1      30.329  -3.178  10.096  0.00  0.00    +0.000 A 
ATOM     15  C   UNL     1      29.673  -1.452  11.655  0.00  0.00    +0.000 A 
BRANCH   9   7
ATOM      7  C   UNL     1      26.739  -2.215   9.394  0.00  0.00    +0.000 C 
BRANCH   7   8
ATOM      8  C   UNL     1      26.606  -3.221   8.249  0.00  0.00    +0.000 C 
BRANCH   8  10
ATOM     10  C   UNL     1      25.264  -3.950   8.305  0.00  0.00    +0.000 C 
ATOM     16  C   UNL     1      25.411  -5.418   7.942  0.00  0.00    +0.000 C 
ENDBRANCH   8  10
ENDBRANCH   7   8
ENDBRANCH   9   7
ENDBRANCH   1  11
TORSDOF 5
ENDMDL
MODEL 6
REMARK VINA RESULT:      -6.3      3.677      4.189
REMARK  Name = 562945
REMARK  7 active torsions:
REMARK  status: ('A' for Active; 'I' for Inactive)
REMARK    1  A    between atoms: S_1  and  N_5
REMARK    2  A    between atoms: S_1  and  C_11
REMARK    3  A    between atoms: C_7  and  C_8
REMARK    4  A    between atoms: C_7  and  C_9
REMARK    5  A    between atoms: C_8  and  C_10
REMARK    6  A    between atoms: C_10  and  C_16
REMARK    7  A    between atoms: C_19  and  C_20
REMARK                            x       y       z     vdW  Elec       q    Type
REMARK                         _______ _______ _______ _____ _____    ______ ____
ROOT
ATOM      1  S   UNL     1      32.499  -0.516   9.789  0.00  0.00    +0.000 S 
ATOM      2  O   UNL     1      33.297  -1.282   8.838  0.00  0.00    +0.000 OA
ATOM      3  O   UNL     1      32.893  -0.513  11.192  0.00  0.00    +0.000 OA
ENDROOT
BRANCH   1   5
ATOM      4  O   UNL     1      34.574   3.793   9.842  0.00  0.00    +0.000 OA
ATOM      5  N   UNL     1      32.393   1.104   9.215  0.00  0.00    +0.000 N 
ATOM      6  N   UNL     1      33.315   3.307   9.515  0.00  0.00    +0.000 NA
ATOM     17  C   UNL     1      33.478   2.000   9.512  0.00  0.00    +0.000 A 
ATOM     18  C   UNL     1      34.759   1.571   9.815  0.00  0.00    +0.000 A 
ATOM     19  C   UNL     1      35.426   2.751  10.018  0.00  0.00    +0.000 A 
ATOM     20  C   UNL     1      36.811   3.087  10.372  0.00  0.00    +0.000 C 
ATOM     21  H   UNL     1      31.470   1.533   9.072  0.00  0.00    +0.000 HD
ENDBRANCH   1   5
BRANCH   1  11
ATOM      9  C   UNL     1      28.229  -1.968   9.486  0.00  0.00    +0.000 A 
ATOM     11  C   UNL     1      30.850  -1.078   9.672  0.00  0.00    +0.000 A 
ATOM     12  C   UNL     1      28.536  -0.668   9.110  0.00  0.00    +0.000 A 
ATOM     13  C   UNL     1      29.209  -2.829   9.954  0.00  0.00    +0.000 A 
ATOM     14  C   UNL     1      29.854  -0.221   9.203  0.00  0.00    +0.000 A 
ATOM     15  C   UNL     1      30.528  -2.382  10.048  0.00  0.00    +0.000 A 
BRANCH   9   7
ATOM      7  C   UNL     1      26.805  -2.452   9.385  0.00  0.00    +0.000 C 
BRANCH   7   8
ATOM      8  C   UNL     1      26.316  -2.476   7.936  0.00  0.00    +0.000 C 
BRANCH   8  10
ATOM     10  C   UNL     1      25.228  -3.530   7.736  0.00  0.00    +0.000 C 
ATOM     16  C   UNL     1      25.725  -4.920   8.096  0.00  0.00    +0.000 C 
ENDBRANCH   8  10
ENDBRANCH   7   8
ENDBRANCH   9   7
ENDBRANCH   1  11
TORSDOF 5
ENDMDL
MODEL 7
REMARK VINA RESULT:      -6.3      4.505      5.734
REMARK  Name = 562945
REMARK  7 active torsions:
REMARK  status: ('A' for Active; 'I' for Inactive)
REMARK    1  A    between atoms: S_1  and  N_5
REMARK    2  A    between atoms: S_1  and  C_11
REMARK    3  A    between atoms: C_7  and  C_8
REMARK    4  A    between atoms: C_7  and  C_9
REMARK    5  A    between atoms: C_8  and  C_10
REMARK    6  A    between atoms: C_10  and  C_16
REMARK    7  A    between atoms: C_19  and  C_20
REMARK                            x       y       z     vdW  Elec       q    Type
REMARK                         _______ _______ _______ _____ _____    ______ ____
ROOT
ATOM      1  S   UNL     1      33.413  -5.409  11.094  0.00  0.00    +0.000 S 
ATOM      2  O   UNL     1      34.325  -5.041  12.171  0.00  0.00    +0.000 OA
ATOM      3  O   UNL     1      33.946  -5.556   9.745  0.00  0.00    +0.000 OA
ENDROOT
BRANCH   1   5
ATOM      4  O   UNL     1      33.239 -10.154  10.504  0.00  0.00    +0.000 OA
ATOM      5  N   UNL     1      32.599  -6.856  11.553  0.00  0.00    +0.000 N 
ATOM      6  N   UNL     1      32.372  -9.186  10.996  0.00  0.00    +0.000 NA
ATOM     17  C   UNL     1      33.124  -8.108  11.079  0.00  0.00    +0.000 A 
ATOM     18  C   UNL     1      34.438  -8.281  10.676  0.00  0.00    +0.000 A 
ATOM     19  C   UNL     1      34.466  -9.603  10.318  0.00  0.00    +0.000 A 
ATOM     20  C   UNL     1      35.512 -10.492   9.797  0.00  0.00    +0.000 C 
ATOM     21  H   UNL     1      31.593  -6.829  11.760  0.00  0.00    +0.000 HD
ENDBRANCH   1   5
BRANCH   1  11
ATOM      9  C   UNL     1      30.075  -2.363  11.012  0.00  0.00    +0.000 A 
ATOM     11  C   UNL     1      32.124  -4.233  11.061  0.00  0.00    +0.000 A 
ATOM     12  C   UNL     1      30.909  -2.431  12.118  0.00  0.00    +0.000 A 
ATOM     13  C   UNL     1      30.246  -3.214   9.931  0.00  0.00    +0.000 A 
ATOM     14  C   UNL     1      31.940  -3.371  12.143  0.00  0.00    +0.000 A 
ATOM     15  C   UNL     1      31.277  -4.155   9.956  0.00  0.00    +0.000 A 
BRANCH   9   7
ATOM      7  C   UNL     1      28.961  -1.347  10.985  0.00  0.00    +0.000 C 
BRANCH   7   8
ATOM      8  C   UNL     1      27.774  -1.830  10.151  0.00  0.00    +0.000 C 
BRANCH   8  10
ATOM     10  C   UNL     1      27.496  -0.884   8.983  0.00  0.00    +0.000 C 
ATOM     16  C   UNL     1      28.067   0.501   9.239  0.00  0.00    +0.000 C 
ENDBRANCH   8  10
ENDBRANCH   7   8
ENDBRANCH   9   7
ENDBRANCH   1  11
TORSDOF 5
ENDMDL
MODEL 8
REMARK VINA RESULT:      -6.0      2.383      2.946
REMARK  Name = 562945
REMARK  7 active torsions:
REMARK  status: ('A' for Active; 'I' for Inactive)
REMARK    1  A    between atoms: S_1  and  N_5
REMARK    2  A    between atoms: S_1  and  C_11
REMARK    3  A    between atoms: C_7  and  C_8
REMARK    4  A    between atoms: C_7  and  C_9
REMARK    5  A    between atoms: C_8  and  C_10
REMARK    6  A    between atoms: C_10  and  C_16
REMARK    7  A    between atoms: C_19  and  C_20
REMARK                            x       y       z     vdW  Elec       q    Type
REMARK                         _______ _______ _______ _____ _____    ______ ____
ROOT
ATOM      1  S   UNL     1      33.954  -0.539  12.711  0.00  0.00    +0.000 S 
ATOM      2  O   UNL     1      34.341   0.685  12.018  0.00  0.00    +0.000 OA
ATOM      3  O   UNL     1      34.950  -1.587  12.891  0.00  0.00    +0.000 OA
ENDROOT
BRANCH   1   5
ATOM      4  O   UNL     1      34.867   1.568  16.908  0.00  0.00    +0.000 OA
ATOM      5  N   UNL     1      33.293  -0.102  14.240  0.00  0.00    +0.000 N 
ATOM      6  N   UNL     1      33.893   0.703  16.427  0.00  0.00    +0.000 NA
ATOM     17  C   UNL     1      34.103   0.688  15.127  0.00  0.00    +0.000 A 
ATOM     18  C   UNL     1      35.153   1.482  14.698  0.00  0.00    +0.000 A 
ATOM     19  C   UNL     1      35.611   2.026  15.868  0.00  0.00    +0.000 A 
ATOM     20  C   UNL     1      36.696   2.958  16.199  0.00  0.00    +0.000 C 
ATOM     21  H   UNL     1      32.585  -0.705  14.679  0.00  0.00    +0.000 HD
ENDBRANCH   1   5
BRANCH   1  11
ATOM      9  C   UNL     1      30.394  -2.281  10.538  0.00  0.00    +0.000 A 
ATOM     11  C   UNL     1      32.579  -1.212  11.872  0.00  0.00    +0.000 A 
ATOM     12  C   UNL     1      31.497  -1.859   9.810  0.00  0.00    +0.000 A 
ATOM     13  C   UNL     1      30.364  -2.177  11.920  0.00  0.00    +0.000 A 
ATOM     14  C   UNL     1      32.596  -1.322  10.481  0.00  0.00    +0.000 A 
ATOM     15  C   UNL     1      31.462  -1.639  12.592  0.00  0.00    +0.000 A 
BRANCH   9   7
ATOM      7  C   UNL     1      29.207  -2.862   9.813  0.00  0.00    +0.000 C 
BRANCH   7   8
ATOM      8  C   UNL     1      27.907  -2.151  10.194  0.00  0.00    +0.000 C 
BRANCH   8  10
ATOM     10  C   UNL     1      27.495  -1.140   9.126  0.00  0.00    +0.000 C 
ATOM     16  C   UNL     1      28.099   0.229   9.391  0.00  0.00    +0.000 C 
ENDBRANCH   8  10
ENDBRANCH   7   8
ENDBRANCH   9   7
ENDBRANCH   1  11
TORSDOF 5
ENDMDL
MODEL 9
REMARK VINA RESULT:      -5.9      4.583      7.276
REMARK  Name = 562945
REMARK  7 active torsions:
REMARK  status: ('A' for Active; 'I' for Inactive)
REMARK    1  A    between atoms: S_1  and  N_5
REMARK    2  A    between atoms: S_1  and  C_11
REMARK    3  A    between atoms: C_7  and  C_8
REMARK    4  A    between atoms: C_7  and  C_9
REMARK    5  A    between atoms: C_8  and  C_10
REMARK    6  A    between atoms: C_10  and  C_16
REMARK    7  A    between atoms: C_19  and  C_20
REMARK                            x       y       z     vdW  Elec       q    Type
REMARK                         _______ _______ _______ _____ _____    ______ ____
ROOT
ATOM      1  S   UNL     1      30.837  -2.091  10.735  0.00  0.00    +0.000 S 
ATOM      2  O   UNL     1      31.405  -2.482  12.020  0.00  0.00    +0.000 OA
ATOM      3  O   UNL     1      30.159  -3.101   9.932  0.00  0.00    +0.000 OA
ENDROOT
BRANCH   1   5
ATOM      4  O   UNL     1      27.368   0.587   8.818  0.00  0.00    +0.000 OA
ATOM      5  N   UNL     1      29.778  -0.759  11.000  0.00  0.00    +0.000 N 
ATOM      6  N   UNL     1      28.251   0.726   9.881  0.00  0.00    +0.000 NA
ATOM     17  C   UNL     1      28.790  -0.469   9.997  0.00  0.00    +0.000 A 
ATOM     18  C   UNL     1      28.332  -1.406   9.085  0.00  0.00    +0.000 A 
ATOM     19  C   UNL     1      27.424  -0.687   8.353  0.00  0.00    +0.000 A 
ATOM     20  C   UNL     1      26.548  -1.011   7.220  0.00  0.00    +0.000 C 
ATOM     21  H   UNL     1      30.092   0.031  11.577  0.00  0.00    +0.000 HD
ENDBRANCH   1   5
BRANCH   1  11
ATOM      9  C   UNL     1      34.151  -0.262   8.264  0.00  0.00    +0.000 A 
ATOM     11  C   UNL     1      32.118  -1.385   9.780  0.00  0.00    +0.000 A 
ATOM     12  C   UNL     1      33.068   0.520   8.638  0.00  0.00    +0.000 A 
ATOM     13  C   UNL     1      34.234  -1.596   8.633  0.00  0.00    +0.000 A 
ATOM     14  C   UNL     1      32.046  -0.044   9.402  0.00  0.00    +0.000 A 
ATOM     15  C   UNL     1      33.211  -2.161   9.396  0.00  0.00    +0.000 A 
BRANCH   9   7
ATOM      7  C   UNL     1      35.256   0.348   7.440  0.00  0.00    +0.000 C 
BRANCH   7   8
ATOM      8  C   UNL     1      36.180  -0.719   6.851  0.00  0.00    +0.000 C 
BRANCH   8  10
ATOM     10  C   UNL     1      35.918  -0.917   5.359  0.00  0.00    +0.000 C 
ATOM     16  C   UNL     1      36.139  -2.361   4.940  0.00  0.00    +0.000 C 
ENDBRANCH   8  10
ENDBRANCH   7   8
ENDBRANCH   9   7
ENDBRANCH   1  11
TORSDOF 5
ENDMDL
MODEL 10
REMARK VINA RESULT:      -5.8      2.099      2.482
REMARK  Name = 562945
REMARK  7 active torsions:
REMARK  status: ('A' for Active; 'I' for Inactive)
REMARK    1  A    between atoms: S_1  and  N_5
REMARK    2  A    between atoms: S_1  and  C_11
REMARK    3  A    between atoms: C_7  and  C_8
REMARK    4  A    between atoms: C_7  and  C_9
REMARK    5  A    between atoms: C_8  and  C_10
REMARK    6  A    between atoms: C_10  and  C_16
REMARK    7  A    between atoms: C_19  and  C_20
REMARK                            x       y       z     vdW  Elec       q    Type
REMARK                         _______ _______ _______ _____ _____    ______ ____
ROOT
ATOM      1  S   UNL     1      33.448  -1.174   9.878  0.00  0.00    +0.000 S 
ATOM      2  O   UNL     1      33.654   0.228  10.223  0.00  0.00    +0.000 OA
ATOM      3  O   UNL     1      34.021  -1.683   8.638  0.00  0.00    +0.000 OA
ENDROOT
BRANCH   1   5
ATOM      4  O   UNL     1      34.619  -1.139  14.516  0.00  0.00    +0.000 OA
ATOM      5  N   UNL     1      33.989  -2.136  11.200  0.00  0.00    +0.000 N 
ATOM      6  N   UNL     1      34.840  -1.998  13.447  0.00  0.00    +0.000 NA
ATOM     17  C   UNL     1      34.060  -1.523  12.499  0.00  0.00    +0.000 A 
ATOM     18  C   UNL     1      33.328  -0.401  12.854  0.00  0.00    +0.000 A 
ATOM     19  C   UNL     1      33.717  -0.193  14.151  0.00  0.00    +0.000 A 
ATOM     20  C   UNL     1      33.366   0.806  15.168  0.00  0.00    +0.000 C 
ATOM     21  H   UNL     1      34.627  -2.923  11.029  0.00  0.00    +0.000 HD
ENDBRANCH   1   5
BRANCH   1  11
ATOM      9  C   UNL     1      28.993  -1.938   9.836  0.00  0.00    +0.000 A 
ATOM     11  C   UNL     1      31.727  -1.470   9.862  0.00  0.00    +0.000 A 
ATOM     12  C   UNL     1      29.472  -0.680   9.503  0.00  0.00    +0.000 A 
ATOM     13  C   UNL     1      29.857  -2.966  10.183  0.00  0.00    +0.000 A 
ATOM     14  C   UNL     1      30.847  -0.445   9.515  0.00  0.00    +0.000 A 
ATOM     15  C   UNL     1      31.232  -2.731  10.196  0.00  0.00    +0.000 A 
BRANCH   9   7
ATOM      7  C   UNL     1      27.507  -2.193   9.823  0.00  0.00    +0.000 C 
BRANCH   7   8
ATOM      8  C   UNL     1      27.082  -2.999   8.594  0.00  0.00    +0.000 C 
BRANCH   8  10
ATOM     10  C   UNL     1      25.589  -3.323   8.634  0.00  0.00    +0.000 C 
ATOM     16  C   UNL     1      25.158  -4.122   7.415  0.00  0.00    +0.000 C 
ENDBRANCH   8  10
ENDBRANCH   7   8
ENDBRANCH   9   7
ENDBRANCH   1  11
TORSDOF 5
ENDMDL
