REMARK  Name = 1949759
REMARK  8 active torsions:
REMARK  status: ('A' for Active; 'I' for Inactive)
REMARK    1  A    between atoms: S_1  and  N_7
REMARK    2  A    between atoms: S_1  and  C_11
REMARK    3  A    between atoms: N_8  and  C_14
REMARK    4  A    between atoms: N_8  and  C_20
REMARK    5  A    between atoms: N_10  and  C_20
REMARK    6  A    between atoms: C_19  and  C_21
REMARK    7  A    between atoms: C_22  and  C_23
REMARK    8  A    between atoms: C_24  and  C_27
REMARK                            x       y       z     vdW  Elec       q    Type
REMARK                         _______ _______ _______ _____ _____    ______ ____
ROOT
ATOM     11  C   UNL     1      -3.335  -1.520   0.157  0.00  0.00    +0.000 A 
ATOM     12  C   UNL     1      -2.919  -0.592   1.111  0.00  0.00    +0.000 A 
ATOM     13  C   UNL     1      -2.424  -2.021  -0.773  0.00  0.00    +0.000 A 
ATOM     14  C   UNL     1      -0.702  -0.672   0.205  0.00  0.00    +0.000 A 
ATOM     15  C   UNL     1      -1.591  -0.165   1.136  0.00  0.00    +0.000 A 
ATOM     16  C   UNL     1      -1.097  -1.593  -0.749  0.00  0.00    +0.000 A 
ENDROOT
BRANCH  11   1
ATOM      1  S   UNL     1      -4.997  -2.055   0.126  0.00  0.00    +0.000 S 
ATOM      3  O   UNL     1      -5.040  -3.369  -0.503  0.00  0.00    +0.000 OA
ATOM      4  O   UNL     1      -5.554  -1.881   1.462  0.00  0.00    +0.000 OA
BRANCH   1   7
ATOM      5  O   UNL     1      -6.943   1.950   0.705  0.00  0.00    +0.000 OA
ATOM      7  N   UNL     1      -5.699  -0.909  -0.927  0.00  0.00    +0.000 N 
ATOM      9  N   UNL     1      -6.315   0.711   0.742  0.00  0.00    +0.000 NA
ATOM     17  C   UNL     1      -6.271   0.323  -0.527  0.00  0.00    +0.000 A 
ATOM     18  C   UNL     1      -6.840   1.247  -1.408  0.00  0.00    +0.000 A 
ATOM     19  C   UNL     1      -7.250   2.259  -0.581  0.00  0.00    +0.000 A 
ATOM     21  C   UNL     1      -7.923   3.544  -0.805  0.00  0.00    +0.000 C 
ATOM     31  H   UNL     1      -5.797  -1.162  -1.918  0.00  0.00    +0.000 HD
ENDBRANCH   1   7
ENDBRANCH  11   1
BRANCH  14   8
ATOM      8  N   UNL     1       0.648  -0.237   0.230  0.00  0.00    +0.000 N 
ATOM     32  H   UNL     1       1.266  -0.868  -0.275  0.00  0.00    +0.000 HD
BRANCH   8  20
ATOM      2  S   UNL     1       0.498   2.420   1.002  0.00  0.00    +0.000 S 
ATOM     20  C   UNL     1       1.234   0.980   0.552  0.00  0.00    +0.000 C 
BRANCH  20  10
ATOM      6  O   UNL     1       3.227  -1.170  -0.258  0.00  0.00    +0.000 OA
ATOM     10  N   UNL     1       2.640   0.992   0.444  0.00  0.00    +0.000 N 
ATOM     24  C   UNL     1       3.530  -0.027   0.064  0.00  0.00    +0.000 C 
ATOM     33  H   UNL     1       3.052   1.892   0.678  0.00  0.00    +0.000 HD
BRANCH  24  27
ATOM     23  C   UNL     1       5.938  -0.396  -0.224  0.00  0.00    +0.000 C 
ATOM     27  C   UNL     1       4.944   0.446   0.097  0.00  0.00    +0.000 C 
BRANCH  23  22
ATOM     22  C   UNL     1       7.368  -0.042  -0.218  0.00  0.00    +0.000 A 
ATOM     25  C   UNL     1       7.737   1.292  -0.278  0.00  0.00    +0.000 A 
ATOM     26  C   UNL     1       8.317  -1.050  -0.153  0.00  0.00    +0.000 A 
ATOM     28  C   UNL     1       9.091   1.627  -0.273  0.00  0.00    +0.000 A 
ATOM     29  C   UNL     1       9.671  -0.715  -0.148  0.00  0.00    +0.000 A 
ATOM     30  C   UNL     1      10.058   0.624  -0.208  0.00  0.00    +0.000 A 
ENDBRANCH  23  22
ENDBRANCH  24  27
ENDBRANCH  20  10
ENDBRANCH   8  20
ENDBRANCH  14   8
TORSDOF 7
