REMARK  Name = 2730383
REMARK  5 active torsions:
REMARK  status: ('A' for Active; 'I' for Inactive)
REMARK    1  A    between atoms: N_3  and  C_6
REMARK    2  A    between atoms: N_3  and  C_13
REMARK    3  A    between atoms: N_4  and  C_13
REMARK    4  A    between atoms: C_7  and  C_16
REMARK    5  A    between atoms: C_15  and  C_17
REMARK                            x       y       z     vdW  Elec       q    Type
REMARK                         _______ _______ _______ _____ _____    ______ ____
ROOT
ATOM      1  S   UNL     1       1.254   3.166   0.077  0.00  0.00    +0.000 S 
ATOM     13  C   UNL     1       0.389   1.723  -0.026  0.00  0.00    +0.000 C 
ENDROOT
BRANCH  13   4
ATOM      2  O   UNL     1       4.362  -0.059   0.296  0.00  0.00    +0.000 OA
ATOM      4  N   UNL     1       0.911   0.443   0.011  0.00  0.00    +0.000 N 
ATOM      5  N   UNL     1       3.241   0.749   0.441  0.00  0.00    +0.000 NA
ATOM     12  C   UNL     1       2.253  -0.014   0.025  0.00  0.00    +0.000 A 
ATOM     14  C   UNL     1       2.628  -1.281  -0.391  0.00  0.00    +0.000 A 
ATOM     15  C   UNL     1       3.985  -1.265  -0.200  0.00  0.00    +0.000 A 
ATOM     17  C   UNL     1       5.053  -2.248  -0.417  0.00  0.00    +0.000 C 
ATOM     19  H   UNL     1       0.292  -0.295  -0.304  0.00  0.00    +0.000 HD
ENDBRANCH  13   4
BRANCH  13   3
ATOM      3  N   UNL     1      -1.010   1.811  -0.030  0.00  0.00    +0.000 N 
ATOM     18  H   UNL     1      -1.352   2.748  -0.230  0.00  0.00    +0.000 HD
BRANCH   3   6
ATOM      6  C   UNL     1      -2.006   0.834  -0.004  0.00  0.00    +0.000 A 
ATOM      7  C   UNL     1      -3.996  -1.120   0.049  0.00  0.00    +0.000 A 
ATOM      8  C   UNL     1      -3.219   1.056  -0.655  0.00  0.00    +0.000 A 
ATOM      9  C   UNL     1      -1.788  -0.366   0.675  0.00  0.00    +0.000 A 
ATOM     10  C   UNL     1      -4.214   0.079  -0.629  0.00  0.00    +0.000 A 
ATOM     11  C   UNL     1      -2.783  -1.343   0.701  0.00  0.00    +0.000 A 
ATOM     16  C   UNL     1      -5.060  -2.165   0.077  0.00  0.00    +0.000 C 
ENDBRANCH   3   6
ENDBRANCH  13   3
TORSDOF 3
