MODEL 1
REMARK VINA RESULT:      -8.1      0.000      0.000
REMARK  Name = 2730383
REMARK  5 active torsions:
REMARK  status: ('A' for Active; 'I' for Inactive)
REMARK    1  A    between atoms: N_3  and  C_6
REMARK    2  A    between atoms: N_3  and  C_13
REMARK    3  A    between atoms: N_4  and  C_13
REMARK    4  A    between atoms: C_7  and  C_16
REMARK    5  A    between atoms: C_15  and  C_17
REMARK                            x       y       z     vdW  Elec       q    Type
REMARK                         _______ _______ _______ _____ _____    ______ ____
ROOT
ATOM      1  S   UNL     1      24.008  -6.213   9.133  0.00  0.00    +0.000 S 
ATOM     13  C   UNL     1      24.288  -5.314   7.736  0.00  0.00    +0.000 C 
ENDROOT
BRANCH  13   4
ATOM      2  O   UNL     1      20.848  -2.626   7.690  0.00  0.00    +0.000 OA
ATOM      4  N   UNL     1      23.344  -4.914   6.808  0.00  0.00    +0.000 N 
ATOM      5  N   UNL     1      22.089  -3.209   7.915  0.00  0.00    +0.000 NA
ATOM     12  C   UNL     1      22.199  -4.090   6.943  0.00  0.00    +0.000 A 
ATOM     14  C   UNL     1      21.119  -4.142   6.077  0.00  0.00    +0.000 A 
ATOM     15  C   UNL     1      20.280  -3.189   6.593  0.00  0.00    +0.000 A 
ATOM     17  C   UNL     1      18.955  -2.687   6.210  0.00  0.00    +0.000 C 
ATOM     19  H   UNL     1      23.262  -5.497   5.983  0.00  0.00    +0.000 HD
ENDBRANCH  13   4
BRANCH  13   3
ATOM      3  N   UNL     1      25.583  -4.813   7.542  0.00  0.00    +0.000 N 
ATOM     18  H   UNL     1      26.153  -5.398   6.935  0.00  0.00    +0.000 HD
BRANCH   3   6
ATOM      6  C   UNL     1      26.166  -3.586   7.863  0.00  0.00    +0.000 A 
ATOM      7  C   UNL     1      27.331  -1.135   8.506  0.00  0.00    +0.000 A 
ATOM      8  C   UNL     1      26.331  -2.613   6.878  0.00  0.00    +0.000 A 
ATOM      9  C   UNL     1      26.585  -3.334   9.170  0.00  0.00    +0.000 A 
ATOM     10  C   UNL     1      26.913  -1.387   7.199  0.00  0.00    +0.000 A 
ATOM     11  C   UNL     1      27.167  -2.108   9.491  0.00  0.00    +0.000 A 
ATOM     16  C   UNL     1      27.954   0.177   8.849  0.00  0.00    +0.000 C 
ENDBRANCH   3   6
ENDBRANCH  13   3
TORSDOF 3
ENDMDL
MODEL 2
REMARK VINA RESULT:      -7.3      2.600      3.160
REMARK  Name = 2730383
REMARK  5 active torsions:
REMARK  status: ('A' for Active; 'I' for Inactive)
REMARK    1  A    between atoms: N_3  and  C_6
REMARK    2  A    between atoms: N_3  and  C_13
REMARK    3  A    between atoms: N_4  and  C_13
REMARK    4  A    between atoms: C_7  and  C_16
REMARK    5  A    between atoms: C_15  and  C_17
REMARK                            x       y       z     vdW  Elec       q    Type
REMARK                         _______ _______ _______ _____ _____    ______ ____
ROOT
ATOM      1  S   UNL     1      23.736  -3.780   9.303  0.00  0.00    +0.000 S 
ATOM     13  C   UNL     1      24.586  -4.533   8.057  0.00  0.00    +0.000 C 
ENDROOT
BRANCH  13   4
ATOM      2  O   UNL     1      21.364  -7.480   8.002  0.00  0.00    +0.000 OA
ATOM      4  N   UNL     1      24.083  -5.449   7.151  0.00  0.00    +0.000 N 
ATOM      5  N   UNL     1      22.135  -6.341   8.206  0.00  0.00    +0.000 NA
ATOM     12  C   UNL     1      23.072  -6.433   7.287  0.00  0.00    +0.000 A 
ATOM     14  C   UNL     1      22.989  -7.553   6.477  0.00  0.00    +0.000 A 
ATOM     15  C   UNL     1      21.882  -8.194   6.971  0.00  0.00    +0.000 A 
ATOM     17  C   UNL     1      21.186  -9.436   6.618  0.00  0.00    +0.000 C 
ATOM     19  H   UNL     1      24.687  -5.672   6.368  0.00  0.00    +0.000 HD
ENDBRANCH  13   4
BRANCH  13   3
ATOM      3  N   UNL     1      25.902  -4.109   7.829  0.00  0.00    +0.000 N 
ATOM     18  H   UNL     1      26.413  -4.714   7.191  0.00  0.00    +0.000 HD
BRANCH   3   6
ATOM      6  C   UNL     1      26.571  -2.928   8.154  0.00  0.00    +0.000 A 
ATOM      7  C   UNL     1      27.908  -0.567   8.801  0.00  0.00    +0.000 A 
ATOM      8  C   UNL     1      27.437  -2.894   9.246  0.00  0.00    +0.000 A 
ATOM      9  C   UNL     1      26.373  -1.780   7.384  0.00  0.00    +0.000 A 
ATOM     10  C   UNL     1      28.106  -1.714   9.570  0.00  0.00    +0.000 A 
ATOM     11  C   UNL     1      27.042  -0.600   7.708  0.00  0.00    +0.000 A 
ATOM     16  C   UNL     1      28.623   0.695   9.147  0.00  0.00    +0.000 C 
ENDBRANCH   3   6
ENDBRANCH  13   3
TORSDOF 3
ENDMDL
MODEL 3
REMARK VINA RESULT:      -6.7      2.312      2.555
REMARK  Name = 2730383
REMARK  5 active torsions:
REMARK  status: ('A' for Active; 'I' for Inactive)
REMARK    1  A    between atoms: N_3  and  C_6
REMARK    2  A    between atoms: N_3  and  C_13
REMARK    3  A    between atoms: N_4  and  C_13
REMARK    4  A    between atoms: C_7  and  C_16
REMARK    5  A    between atoms: C_15  and  C_17
REMARK                            x       y       z     vdW  Elec       q    Type
REMARK                         _______ _______ _______ _____ _____    ______ ____
ROOT
ATOM      1  S   UNL     1      23.877  -6.882   7.102  0.00  0.00    +0.000 S 
ATOM     13  C   UNL     1      24.456  -5.689   8.143  0.00  0.00    +0.000 C 
ENDROOT
BRANCH  13   4
ATOM      2  O   UNL     1      21.642  -2.620   9.456  0.00  0.00    +0.000 OA
ATOM      4  N   UNL     1      23.893  -5.296   9.343  0.00  0.00    +0.000 N 
ATOM      5  N   UNL     1      22.303  -3.615   8.748  0.00  0.00    +0.000 NA
ATOM     12  C   UNL     1      23.047  -4.204   9.660  0.00  0.00    +0.000 A 
ATOM     14  C   UNL     1      22.934  -3.676  10.936  0.00  0.00    +0.000 A 
ATOM     15  C   UNL     1      22.026  -2.665  10.758  0.00  0.00    +0.000 A 
ATOM     17  C   UNL     1      21.419  -1.675  11.655  0.00  0.00    +0.000 C 
ATOM     19  H   UNL     1      24.354  -5.638  10.179  0.00  0.00    +0.000 HD
ENDBRANCH  13   4
BRANCH  13   3
ATOM      3  N   UNL     1      25.696  -5.112   7.833  0.00  0.00    +0.000 N 
ATOM     18  H   UNL     1      26.260  -5.685   7.210  0.00  0.00    +0.000 HD
BRANCH   3   6
ATOM      6  C   UNL     1      26.212  -3.835   8.058  0.00  0.00    +0.000 A 
ATOM      7  C   UNL     1      27.246  -1.284   8.508  0.00  0.00    +0.000 A 
ATOM      8  C   UNL     1      25.824  -2.772   7.244  0.00  0.00    +0.000 A 
ATOM      9  C   UNL     1      27.119  -3.623   9.098  0.00  0.00    +0.000 A 
ATOM     10  C   UNL     1      26.341  -1.496   7.469  0.00  0.00    +0.000 A 
ATOM     11  C   UNL     1      27.636  -2.348   9.323  0.00  0.00    +0.000 A 
ATOM     16  C   UNL     1      27.799   0.080   8.749  0.00  0.00    +0.000 C 
ENDBRANCH   3   6
ENDBRANCH  13   3
TORSDOF 3
ENDMDL
MODEL 4
REMARK VINA RESULT:      -6.2      6.434      9.074
REMARK  Name = 2730383
REMARK  5 active torsions:
REMARK  status: ('A' for Active; 'I' for Inactive)
REMARK    1  A    between atoms: N_3  and  C_6
REMARK    2  A    between atoms: N_3  and  C_13
REMARK    3  A    between atoms: N_4  and  C_13
REMARK    4  A    between atoms: C_7  and  C_16
REMARK    5  A    between atoms: C_15  and  C_17
REMARK                            x       y       z     vdW  Elec       q    Type
REMARK                         _______ _______ _______ _____ _____    ______ ____
ROOT
ATOM      1  S   UNL     1      32.930  -1.292  11.951  0.00  0.00    +0.000 S 
ATOM     13  C   UNL     1      31.668  -2.125  11.206  0.00  0.00    +0.000 C 
ENDROOT
BRANCH  13   4
ATOM      2  O   UNL     1      32.375  -6.216  12.559  0.00  0.00    +0.000 OA
ATOM      4  N   UNL     1      31.737  -3.375  10.618  0.00  0.00    +0.000 N 
ATOM      5  N   UNL     1      31.957  -4.895  12.448  0.00  0.00    +0.000 NA
ATOM     12  C   UNL     1      32.071  -4.641  11.162  0.00  0.00    +0.000 A 
ATOM     14  C   UNL     1      32.537  -5.697  10.396  0.00  0.00    +0.000 A 
ATOM     15  C   UNL     1      32.718  -6.683  11.332  0.00  0.00    +0.000 A 
ATOM     17  C   UNL     1      33.186  -8.072  11.266  0.00  0.00    +0.000 C 
ATOM     19  H   UNL     1      31.854  -3.384   9.612  0.00  0.00    +0.000 HD
ENDBRANCH  13   4
BRANCH  13   3
ATOM      3  N   UNL     1      30.388  -1.559  11.286  0.00  0.00    +0.000 N 
ATOM     18  H   UNL     1      30.211  -1.095  12.174  0.00  0.00    +0.000 HD
BRANCH   3   6
ATOM      6  C   UNL     1      29.400  -1.348  10.325  0.00  0.00    +0.000 A 
ATOM      7  C   UNL     1      27.424  -0.924   8.402  0.00  0.00    +0.000 A 
ATOM      8  C   UNL     1      28.277  -2.174  10.284  0.00  0.00    +0.000 A 
ATOM      9  C   UNL     1      29.535  -0.309   9.402  0.00  0.00    +0.000 A 
ATOM     10  C   UNL     1      27.289  -1.962   9.323  0.00  0.00    +0.000 A 
ATOM     11  C   UNL     1      28.547  -0.097   8.441  0.00  0.00    +0.000 A 
ATOM     16  C   UNL     1      26.368  -0.697   7.373  0.00  0.00    +0.000 C 
ENDBRANCH   3   6
ENDBRANCH  13   3
TORSDOF 3
ENDMDL
MODEL 5
REMARK VINA RESULT:      -6.0      8.537     11.663
REMARK  Name = 2730383
REMARK  5 active torsions:
REMARK  status: ('A' for Active; 'I' for Inactive)
REMARK    1  A    between atoms: N_3  and  C_6
REMARK    2  A    between atoms: N_3  and  C_13
REMARK    3  A    between atoms: N_4  and  C_13
REMARK    4  A    between atoms: C_7  and  C_16
REMARK    5  A    between atoms: C_15  and  C_17
REMARK                            x       y       z     vdW  Elec       q    Type
REMARK                         _______ _______ _______ _____ _____    ______ ____
ROOT
ATOM      1  S   UNL     1      33.894  -0.550  11.194  0.00  0.00    +0.000 S 
ATOM     13  C   UNL     1      33.594  -1.673  12.415  0.00  0.00    +0.000 C 
ENDROOT
BRANCH  13   4
ATOM      2  O   UNL     1      33.517   0.851  15.977  0.00  0.00    +0.000 OA
ATOM      4  N   UNL     1      34.170  -1.699  13.672  0.00  0.00    +0.000 N 
ATOM      5  N   UNL     1      33.179   0.139  14.833  0.00  0.00    +0.000 NA
ATOM     12  C   UNL     1      34.139  -0.755  14.729  0.00  0.00    +0.000 A 
ATOM     14  C   UNL     1      35.103  -0.696  15.723  0.00  0.00    +0.000 A 
ATOM     15  C   UNL     1      34.663   0.345  16.498  0.00  0.00    +0.000 A 
ATOM     17  C   UNL     1      35.167   0.985  17.719  0.00  0.00    +0.000 C 
ATOM     19  H   UNL     1      34.960  -2.324  13.782  0.00  0.00    +0.000 HD
ENDBRANCH  13   4
BRANCH  13   3
ATOM      3  N   UNL     1      32.575  -2.608  12.191  0.00  0.00    +0.000 N 
ATOM     18  H   UNL     1      32.698  -3.469  12.719  0.00  0.00    +0.000 HD
BRANCH   3   6
ATOM      6  C   UNL     1      31.344  -2.509  11.542  0.00  0.00    +0.000 A 
ATOM      7  C   UNL     1      28.882  -2.308  10.246  0.00  0.00    +0.000 A 
ATOM      8  C   UNL     1      31.070  -3.314  10.437  0.00  0.00    +0.000 A 
ATOM      9  C   UNL     1      30.386  -1.602  11.999  0.00  0.00    +0.000 A 
ATOM     10  C   UNL     1      29.839  -3.214   9.789  0.00  0.00    +0.000 A 
ATOM     11  C   UNL     1      29.155  -1.502  11.351  0.00  0.00    +0.000 A 
ATOM     16  C   UNL     1      27.565  -2.202   9.553  0.00  0.00    +0.000 C 
ENDBRANCH   3   6
ENDBRANCH  13   3
TORSDOF 3
ENDMDL
MODEL 6
REMARK VINA RESULT:      -5.9      7.001      9.826
REMARK  Name = 2730383
REMARK  5 active torsions:
REMARK  status: ('A' for Active; 'I' for Inactive)
REMARK    1  A    between atoms: N_3  and  C_6
REMARK    2  A    between atoms: N_3  and  C_13
REMARK    3  A    between atoms: N_4  and  C_13
REMARK    4  A    between atoms: C_7  and  C_16
REMARK    5  A    between atoms: C_15  and  C_17
REMARK                            x       y       z     vdW  Elec       q    Type
REMARK                         _______ _______ _______ _____ _____    ______ ____
ROOT
ATOM      1  S   UNL     1      32.077  -3.664  13.795  0.00  0.00    +0.000 S 
ATOM     13  C   UNL     1      32.472  -3.201  12.223  0.00  0.00    +0.000 C 
ENDROOT
BRANCH  13   4
ATOM      2  O   UNL     1      33.004  -7.054  10.239  0.00  0.00    +0.000 OA
ATOM      4  N   UNL     1      33.425  -3.783  11.407  0.00  0.00    +0.000 N 
ATOM      5  N   UNL     1      32.479  -5.882  10.768  0.00  0.00    +0.000 NA
ATOM     12  C   UNL     1      33.530  -5.099  10.892  0.00  0.00    +0.000 A 
ATOM     14  C   UNL     1      34.728  -5.661  10.483  0.00  0.00    +0.000 A 
ATOM     15  C   UNL     1      34.344  -6.911  10.073  0.00  0.00    +0.000 A 
ATOM     17  C   UNL     1      35.063  -8.064   9.519  0.00  0.00    +0.000 C 
ATOM     19  H   UNL     1      34.329  -3.326  11.389  0.00  0.00    +0.000 HD
ENDBRANCH  13   4
BRANCH  13   3
ATOM      3  N   UNL     1      31.683  -2.208  11.628  0.00  0.00    +0.000 N 
ATOM     18  H   UNL     1      32.183  -1.333  11.482  0.00  0.00    +0.000 HD
BRANCH   3   6
ATOM      6  C   UNL     1      30.423  -2.250  11.031  0.00  0.00    +0.000 A 
ATOM      7  C   UNL     1      27.902  -2.335   9.839  0.00  0.00    +0.000 A 
ATOM      8  C   UNL     1      30.157  -3.180  10.026  0.00  0.00    +0.000 A 
ATOM      9  C   UNL     1      29.427  -1.361  11.440  0.00  0.00    +0.000 A 
ATOM     10  C   UNL     1      28.897  -3.223   9.430  0.00  0.00    +0.000 A 
ATOM     11  C   UNL     1      28.167  -1.404  10.844  0.00  0.00    +0.000 A 
ATOM     16  C   UNL     1      26.554  -2.380   9.202  0.00  0.00    +0.000 C 
ENDBRANCH   3   6
ENDBRANCH  13   3
TORSDOF 3
ENDMDL
MODEL 7
REMARK VINA RESULT:      -5.8      7.383      9.974
REMARK  Name = 2730383
REMARK  5 active torsions:
REMARK  status: ('A' for Active; 'I' for Inactive)
REMARK    1  A    between atoms: N_3  and  C_6
REMARK    2  A    between atoms: N_3  and  C_13
REMARK    3  A    between atoms: N_4  and  C_13
REMARK    4  A    between atoms: C_7  and  C_16
REMARK    5  A    between atoms: C_15  and  C_17
REMARK                            x       y       z     vdW  Elec       q    Type
REMARK                         _______ _______ _______ _____ _____    ______ ____
ROOT
ATOM      1  S   UNL     1      33.746  -1.948  13.749  0.00  0.00    +0.000 S 
ATOM     13  C   UNL     1      33.231  -3.219  12.769  0.00  0.00    +0.000 C 
ENDROOT
BRANCH  13   4
ATOM      2  O   UNL     1      33.093  -7.019  10.622  0.00  0.00    +0.000 OA
ATOM      4  N   UNL     1      33.187  -4.559  13.109  0.00  0.00    +0.000 N 
ATOM      5  N   UNL     1      33.372  -5.720  11.029  0.00  0.00    +0.000 NA
ATOM     12  C   UNL     1      33.049  -5.718  12.305  0.00  0.00    +0.000 A 
ATOM     14  C   UNL     1      32.571  -6.925  12.788  0.00  0.00    +0.000 A 
ATOM     15  C   UNL     1      32.616  -7.727  11.678  0.00  0.00    +0.000 A 
ATOM     17  C   UNL     1      32.268  -9.130  11.423  0.00  0.00    +0.000 C 
ATOM     19  H   UNL     1      32.926  -4.762  14.067  0.00  0.00    +0.000 HD
ENDBRANCH  13   4
BRANCH  13   3
ATOM      3  N   UNL     1      32.676  -2.887  11.525  0.00  0.00    +0.000 N 
ATOM     18  H   UNL     1      33.339  -2.967  10.757  0.00  0.00    +0.000 HD
BRANCH   3   6
ATOM      6  C   UNL     1      31.360  -2.660  11.121  0.00  0.00    +0.000 A 
ATOM      7  C   UNL     1      28.729  -2.207  10.313  0.00  0.00    +0.000 A 
ATOM      8  C   UNL     1      30.594  -1.684  11.757  0.00  0.00    +0.000 A 
ATOM      9  C   UNL     1      30.810  -3.411  10.081  0.00  0.00    +0.000 A 
ATOM     10  C   UNL     1      29.278  -1.457  11.353  0.00  0.00    +0.000 A 
ATOM     11  C   UNL     1      29.495  -3.184   9.677  0.00  0.00    +0.000 A 
ATOM     16  C   UNL     1      27.322  -1.964   9.881  0.00  0.00    +0.000 C 
ENDBRANCH   3   6
ENDBRANCH  13   3
TORSDOF 3
ENDMDL
MODEL 8
REMARK VINA RESULT:      -5.7      7.146     10.242
REMARK  Name = 2730383
REMARK  5 active torsions:
REMARK  status: ('A' for Active; 'I' for Inactive)
REMARK    1  A    between atoms: N_3  and  C_6
REMARK    2  A    between atoms: N_3  and  C_13
REMARK    3  A    between atoms: N_4  and  C_13
REMARK    4  A    between atoms: C_7  and  C_16
REMARK    5  A    between atoms: C_15  and  C_17
REMARK                            x       y       z     vdW  Elec       q    Type
REMARK                         _______ _______ _______ _____ _____    ______ ____
ROOT
ATOM      1  S   UNL     1      33.820  -0.791  12.591  0.00  0.00    +0.000 S 
ATOM     13  C   UNL     1      32.823  -1.133  11.275  0.00  0.00    +0.000 C 
ENDROOT
BRANCH  13   4
ATOM      2  O   UNL     1      35.527  -1.874   7.927  0.00  0.00    +0.000 OA
ATOM      4  N   UNL     1      32.969  -0.660   9.984  0.00  0.00    +0.000 N 
ATOM      5  N   UNL     1      34.698  -2.008   9.035  0.00  0.00    +0.000 NA
ATOM     12  C   UNL     1      33.963  -0.917   9.006  0.00  0.00    +0.000 A 
ATOM     14  C   UNL     1      34.237  -0.055   7.958  0.00  0.00    +0.000 A 
ATOM     15  C   UNL     1      35.243  -0.707   7.294  0.00  0.00    +0.000 A 
ATOM     17  C   UNL     1      36.032  -0.404   6.094  0.00  0.00    +0.000 C 
ATOM     19  H   UNL     1      32.485   0.205   9.774  0.00  0.00    +0.000 HD
ENDBRANCH  13   4
BRANCH  13   3
ATOM      3  N   UNL     1      31.812  -2.085  11.465  0.00  0.00    +0.000 N 
ATOM     18  H   UNL     1      32.003  -2.725  12.233  0.00  0.00    +0.000 HD
BRANCH   3   6
ATOM      6  C   UNL     1      30.526  -2.198  10.936  0.00  0.00    +0.000 A 
ATOM      7  C   UNL     1      27.956  -2.424   9.876  0.00  0.00    +0.000 A 
ATOM      8  C   UNL     1      29.496  -1.395  11.426  0.00  0.00    +0.000 A 
ATOM      9  C   UNL     1      30.270  -3.116   9.916  0.00  0.00    +0.000 A 
ATOM     10  C   UNL     1      28.211  -1.508  10.896  0.00  0.00    +0.000 A 
ATOM     11  C   UNL     1      28.985  -3.229   9.386  0.00  0.00    +0.000 A 
ATOM     16  C   UNL     1      26.581  -2.545   9.310  0.00  0.00    +0.000 C 
ENDBRANCH   3   6
ENDBRANCH  13   3
TORSDOF 3
ENDMDL
MODEL 9
REMARK VINA RESULT:      -5.6      6.498      8.594
REMARK  Name = 2730383
REMARK  5 active torsions:
REMARK  status: ('A' for Active; 'I' for Inactive)
REMARK    1  A    between atoms: N_3  and  C_6
REMARK    2  A    between atoms: N_3  and  C_13
REMARK    3  A    between atoms: N_4  and  C_13
REMARK    4  A    between atoms: C_7  and  C_16
REMARK    5  A    between atoms: C_15  and  C_17
REMARK                            x       y       z     vdW  Elec       q    Type
REMARK                         _______ _______ _______ _____ _____    ______ ____
ROOT
ATOM      1  S   UNL     1      33.009  -0.797  10.184  0.00  0.00    +0.000 S 
ATOM     13  C   UNL     1      32.054  -1.658  11.274  0.00  0.00    +0.000 C 
ENDROOT
BRANCH  13   4
ATOM      2  O   UNL     1      28.527  -3.313   9.302  0.00  0.00    +0.000 OA
ATOM      4  N   UNL     1      30.683  -1.559  11.428  0.00  0.00    +0.000 N 
ATOM      5  N   UNL     1      29.782  -3.131   9.871  0.00  0.00    +0.000 NA
ATOM     12  C   UNL     1      29.620  -2.084  10.651  0.00  0.00    +0.000 A 
ATOM     14  C   UNL     1      28.344  -1.545  10.648  0.00  0.00    +0.000 A 
ATOM     15  C   UNL     1      27.679  -2.363   9.772  0.00  0.00    +0.000 A 
ATOM     17  C   UNL     1      26.301  -2.407   9.270  0.00  0.00    +0.000 C 
ATOM     19  H   UNL     1      30.357  -0.781  11.989  0.00  0.00    +0.000 HD
ENDBRANCH  13   4
BRANCH  13   3
ATOM      3  N   UNL     1      32.680  -2.664  12.023  0.00  0.00    +0.000 N 
ATOM     18  H   UNL     1      33.118  -2.317  12.873  0.00  0.00    +0.000 HD
BRANCH   3   6
ATOM      6  C   UNL     1      32.651  -4.056  11.924  0.00  0.00    +0.000 A 
ATOM      7  C   UNL     1      32.594  -6.837  11.723  0.00  0.00    +0.000 A 
ATOM      8  C   UNL     1      32.457  -4.833  13.065  0.00  0.00    +0.000 A 
ATOM      9  C   UNL     1      32.818  -4.670  10.681  0.00  0.00    +0.000 A 
ATOM     10  C   UNL     1      32.428  -6.224  12.965  0.00  0.00    +0.000 A 
ATOM     11  C   UNL     1      32.788  -6.061  10.581  0.00  0.00    +0.000 A 
ATOM     16  C   UNL     1      32.563  -8.325  11.616  0.00  0.00    +0.000 C 
ENDBRANCH   3   6
ENDBRANCH  13   3
TORSDOF 3
ENDMDL
MODEL 10
REMARK VINA RESULT:      -5.5      6.853      9.634
REMARK  Name = 2730383
REMARK  5 active torsions:
REMARK  status: ('A' for Active; 'I' for Inactive)
REMARK    1  A    between atoms: N_3  and  C_6
REMARK    2  A    between atoms: N_3  and  C_13
REMARK    3  A    between atoms: N_4  and  C_13
REMARK    4  A    between atoms: C_7  and  C_16
REMARK    5  A    between atoms: C_15  and  C_17
REMARK                            x       y       z     vdW  Elec       q    Type
REMARK                         _______ _______ _______ _____ _____    ______ ____
ROOT
ATOM      1  S   UNL     1      33.519  -3.131   9.259  0.00  0.00    +0.000 S 
ATOM     13  C   UNL     1      32.325  -3.467  10.400  0.00  0.00    +0.000 C 
ENDROOT
BRANCH  13   4
ATOM      2  O   UNL     1      32.591  -4.567  14.618  0.00  0.00    +0.000 OA
ATOM      4  N   UNL     1      32.195  -4.627  11.142  0.00  0.00    +0.000 N 
ATOM      5  N   UNL     1      32.339  -3.914  13.417  0.00  0.00    +0.000 NA
ATOM     12  C   UNL     1      32.399  -4.877  12.522  0.00  0.00    +0.000 A 
ATOM     14  C   UNL     1      32.675  -6.134  13.034  0.00  0.00    +0.000 A 
ATOM     15  C   UNL     1      32.790  -5.888  14.377  0.00  0.00    +0.000 A 
ATOM     17  C   UNL     1      33.071  -6.732  15.544  0.00  0.00    +0.000 C 
ATOM     19  H   UNL     1      32.242  -5.494  10.618  0.00  0.00    +0.000 HD
ENDBRANCH  13   4
BRANCH  13   3
ATOM      3  N   UNL     1      31.439  -2.432  10.728  0.00  0.00    +0.000 N 
ATOM     18  H   UNL     1      31.759  -1.861  11.507  0.00  0.00    +0.000 HD
BRANCH   3   6
ATOM      6  C   UNL     1      30.314  -1.925  10.075  0.00  0.00    +0.000 A 
ATOM      7  C   UNL     1      28.067  -0.911   8.769  0.00  0.00    +0.000 A 
ATOM      8  C   UNL     1      29.177  -2.718   9.926  0.00  0.00    +0.000 A 
ATOM      9  C   UNL     1      30.328  -0.624   9.570  0.00  0.00    +0.000 A 
ATOM     10  C   UNL     1      28.053  -2.212   9.274  0.00  0.00    +0.000 A 
ATOM     11  C   UNL     1      29.205  -0.117   8.917  0.00  0.00    +0.000 A 
ATOM     16  C   UNL     1      26.866  -0.369   8.072  0.00  0.00    +0.000 C 
ENDBRANCH   3   6
ENDBRANCH  13   3
TORSDOF 3
ENDMDL
