MODEL 1
REMARK VINA RESULT:      -7.3      0.000      0.000
REMARK  Name = 5344
REMARK  6 active torsions:
REMARK  status: ('A' for Active; 'I' for Inactive)
REMARK    1  A    between atoms: S_1  and  N_5
REMARK    2  A    between atoms: S_1  and  C_8
REMARK    3  A    between atoms: N_5  and  C_9
REMARK    4  A    between atoms: N_7  and  C_17
REMARK    5  A    between atoms: C_10  and  C_14
REMARK    6  A    between atoms: C_11  and  C_18
REMARK                            x       y       z     vdW  Elec       q    Type
REMARK                         _______ _______ _______ _____ _____    ______ ____
ROOT
ATOM      1  S   UNL     1      28.826   0.266   9.238  0.00  0.00    +0.000 S 
ATOM      3  O   UNL     1      27.936   1.190   9.933  0.00  0.00    +0.000 OA
ATOM      4  O   UNL     1      29.695   0.785   8.189  0.00  0.00    +0.000 OA
ENDROOT
BRANCH   1   8
ATOM      8  C   UNL     1      27.848  -1.016   8.571  0.00  0.00    +0.000 A 
ATOM     12  C   UNL     1      27.404  -2.054   9.391  0.00  0.00    +0.000 A 
ATOM     13  C   UNL     1      27.510  -1.005   7.218  0.00  0.00    +0.000 A 
ATOM     15  C   UNL     1      26.623  -3.079   8.858  0.00  0.00    +0.000 A 
ATOM     16  C   UNL     1      26.728  -2.030   6.685  0.00  0.00    +0.000 A 
ATOM     17  C   UNL     1      26.285  -3.067   7.506  0.00  0.00    +0.000 A 
BRANCH  17   7
ATOM      7  N   UNL     1      25.494  -4.103   6.966  0.00  0.00    +0.000 N 
ATOM     20  H   UNL     1      25.417  -4.210   5.963  0.00  0.00    +0.000 HD
ATOM     21  H   UNL     1      25.000  -4.736   7.581  0.00  0.00    +0.000 HD
ENDBRANCH  17   7
ENDBRANCH   1   8
BRANCH   1   5
ATOM      5  N   UNL     1      29.775  -0.552  10.420  0.00  0.00    +0.000 N 
ATOM     19  H   UNL     1      29.363  -0.911  11.288  0.00  0.00    +0.000 HD
BRANCH   5   9
ATOM      2  O   UNL     1      32.158  -0.207   9.804  0.00  0.00    +0.000 OA
ATOM      6  N   UNL     1      33.258  -0.979   9.453  0.00  0.00    +0.000 NA
ATOM      9  C   UNL     1      31.082  -1.015  10.037  0.00  0.00    +0.000 A 
ATOM     10  C   UNL     1      31.463  -2.325   9.843  0.00  0.00    +0.000 A 
ATOM     11  C   UNL     1      32.820  -2.241   9.484  0.00  0.00    +0.000 A 
ATOM     14  C   UNL     1      30.635  -3.535   9.981  0.00  0.00    +0.000 C 
ATOM     18  C   UNL     1      33.742  -3.340   9.157  0.00  0.00    +0.000 C 
ENDBRANCH   5   9
ENDBRANCH   1   5
TORSDOF 4
ENDMDL
MODEL 2
REMARK VINA RESULT:      -7.2      4.491      6.097
REMARK  Name = 5344
REMARK  6 active torsions:
REMARK  status: ('A' for Active; 'I' for Inactive)
REMARK    1  A    between atoms: S_1  and  N_5
REMARK    2  A    between atoms: S_1  and  C_8
REMARK    3  A    between atoms: N_5  and  C_9
REMARK    4  A    between atoms: N_7  and  C_17
REMARK    5  A    between atoms: C_10  and  C_14
REMARK    6  A    between atoms: C_11  and  C_18
REMARK                            x       y       z     vdW  Elec       q    Type
REMARK                         _______ _______ _______ _____ _____    ______ ____
ROOT
ATOM      1  S   UNL     1      23.874  -3.917   8.217  0.00  0.00    +0.000 S 
ATOM      3  O   UNL     1      24.117  -3.699   9.639  0.00  0.00    +0.000 OA
ATOM      4  O   UNL     1      22.777  -3.205   7.575  0.00  0.00    +0.000 OA
ENDROOT
BRANCH   1   8
ATOM      8  C   UNL     1      23.648  -5.631   7.972  0.00  0.00    +0.000 A 
ATOM     12  C   UNL     1      24.602  -6.534   8.440  0.00  0.00    +0.000 A 
ATOM     13  C   UNL     1      22.515  -6.096   7.307  0.00  0.00    +0.000 A 
ATOM     15  C   UNL     1      24.422  -7.903   8.244  0.00  0.00    +0.000 A 
ATOM     16  C   UNL     1      22.334  -7.466   7.111  0.00  0.00    +0.000 A 
ATOM     17  C   UNL     1      23.288  -8.369   7.580  0.00  0.00    +0.000 A 
BRANCH  17   7
ATOM      7  N   UNL     1      23.104  -9.753   7.381  0.00  0.00    +0.000 N 
ATOM     20  H   UNL     1      22.328 -10.086   6.823  0.00  0.00    +0.000 HD
ATOM     21  H   UNL     1      23.745 -10.415   7.800  0.00  0.00    +0.000 HD
ENDBRANCH  17   7
ENDBRANCH   1   8
BRANCH   1   5
ATOM      5  N   UNL     1      25.341  -3.600   7.370  0.00  0.00    +0.000 N 
ATOM     19  H   UNL     1      25.384  -3.610   6.345  0.00  0.00    +0.000 HD
BRANCH   5   9
ATOM      2  O   UNL     1      27.222  -3.665   8.993  0.00  0.00    +0.000 OA
ATOM      6  N   UNL     1      28.170  -2.793   9.514  0.00  0.00    +0.000 NA
ATOM      9  C   UNL     1      26.429  -3.005   8.099  0.00  0.00    +0.000 A 
ATOM     10  C   UNL     1      26.846  -1.694   8.022  0.00  0.00    +0.000 A 
ATOM     11  C   UNL     1      27.926  -1.622   8.919  0.00  0.00    +0.000 A 
ATOM     14  C   UNL     1      26.284  -0.616   7.190  0.00  0.00    +0.000 C 
ATOM     18  C   UNL     1      28.758  -0.452   9.245  0.00  0.00    +0.000 C 
ENDBRANCH   5   9
ENDBRANCH   1   5
TORSDOF 4
ENDMDL
MODEL 3
REMARK VINA RESULT:      -6.7      4.369      7.941
REMARK  Name = 5344
REMARK  6 active torsions:
REMARK  status: ('A' for Active; 'I' for Inactive)
REMARK    1  A    between atoms: S_1  and  N_5
REMARK    2  A    between atoms: S_1  and  C_8
REMARK    3  A    between atoms: N_5  and  C_9
REMARK    4  A    between atoms: N_7  and  C_17
REMARK    5  A    between atoms: C_10  and  C_14
REMARK    6  A    between atoms: C_11  and  C_18
REMARK                            x       y       z     vdW  Elec       q    Type
REMARK                         _______ _______ _______ _____ _____    ______ ____
ROOT
ATOM      1  S   UNL     1      25.520  -4.284   7.900  0.00  0.00    +0.000 S 
ATOM      3  O   UNL     1      26.297  -5.420   8.386  0.00  0.00    +0.000 OA
ATOM      4  O   UNL     1      25.199  -4.210   6.481  0.00  0.00    +0.000 OA
ENDROOT
BRANCH   1   8
ATOM      8  C   UNL     1      26.363  -2.827   8.361  0.00  0.00    +0.000 A 
ATOM     12  C   UNL     1      26.312  -1.702   7.537  0.00  0.00    +0.000 A 
ATOM     13  C   UNL     1      27.087  -2.786   9.551  0.00  0.00    +0.000 A 
ATOM     15  C   UNL     1      26.986  -0.537   7.904  0.00  0.00    +0.000 A 
ATOM     16  C   UNL     1      27.760  -1.620   9.919  0.00  0.00    +0.000 A 
ATOM     17  C   UNL     1      27.709  -0.496   9.095  0.00  0.00    +0.000 A 
BRANCH  17   7
ATOM      7  N   UNL     1      28.390   0.682   9.468  0.00  0.00    +0.000 N 
ATOM     20  H   UNL     1      29.130   0.642  10.157  0.00  0.00    +0.000 HD
ATOM     21  H   UNL     1      28.137   1.567   9.050  0.00  0.00    +0.000 HD
ENDBRANCH  17   7
ENDBRANCH   1   8
BRANCH   1   5
ATOM      5  N   UNL     1      24.069  -4.195   8.825  0.00  0.00    +0.000 N 
ATOM     19  H   UNL     1      24.082  -4.205   9.850  0.00  0.00    +0.000 HD
BRANCH   5   9
ATOM      2  O   UNL     1      22.318  -2.532   8.240  0.00  0.00    +0.000 OA
ATOM      6  N   UNL     1      21.160  -2.474   7.474  0.00  0.00    +0.000 NA
ATOM      9  C   UNL     1      22.865  -3.779   8.156  0.00  0.00    +0.000 A 
ATOM     10  C   UNL     1      22.075  -4.555   7.335  0.00  0.00    +0.000 A 
ATOM     11  C   UNL     1      21.035  -3.694   6.943  0.00  0.00    +0.000 A 
ATOM     14  C   UNL     1      22.276  -5.964   6.959  0.00  0.00    +0.000 C 
ATOM     18  C   UNL     1      19.894  -3.990   6.061  0.00  0.00    +0.000 C 
ENDBRANCH   5   9
ENDBRANCH   1   5
TORSDOF 4
ENDMDL
MODEL 4
REMARK VINA RESULT:      -6.6      2.637      5.549
REMARK  Name = 5344
REMARK  6 active torsions:
REMARK  status: ('A' for Active; 'I' for Inactive)
REMARK    1  A    between atoms: S_1  and  N_5
REMARK    2  A    between atoms: S_1  and  C_8
REMARK    3  A    between atoms: N_5  and  C_9
REMARK    4  A    between atoms: N_7  and  C_17
REMARK    5  A    between atoms: C_10  and  C_14
REMARK    6  A    between atoms: C_11  and  C_18
REMARK                            x       y       z     vdW  Elec       q    Type
REMARK                         _______ _______ _______ _____ _____    ______ ____
ROOT
ATOM      1  S   UNL     1      31.276  -1.547  11.491  0.00  0.00    +0.000 S 
ATOM      3  O   UNL     1      31.651  -0.896  10.240  0.00  0.00    +0.000 OA
ATOM      4  O   UNL     1      31.812  -1.026  12.742  0.00  0.00    +0.000 OA
ENDROOT
BRANCH   1   8
ATOM      8  C   UNL     1      31.700  -3.235  11.361  0.00  0.00    +0.000 A 
ATOM     12  C   UNL     1      31.953  -3.981  12.513  0.00  0.00    +0.000 A 
ATOM     13  C   UNL     1      31.787  -3.839  10.108  0.00  0.00    +0.000 A 
ATOM     15  C   UNL     1      32.293  -5.330  12.410  0.00  0.00    +0.000 A 
ATOM     16  C   UNL     1      32.126  -5.188  10.004  0.00  0.00    +0.000 A 
ATOM     17  C   UNL     1      32.379  -5.933  11.156  0.00  0.00    +0.000 A 
BRANCH  17   7
ATOM      7  N   UNL     1      32.722  -7.298  11.050  0.00  0.00    +0.000 N 
ATOM     20  H   UNL     1      32.117  -8.004  11.450  0.00  0.00    +0.000 HD
ATOM     21  H   UNL     1      33.574  -7.571  10.580  0.00  0.00    +0.000 HD
ENDBRANCH  17   7
ENDBRANCH   1   8
BRANCH   1   5
ATOM      5  N   UNL     1      29.556  -1.591  11.576  0.00  0.00    +0.000 N 
ATOM     19  H   UNL     1      29.064  -1.808  12.450  0.00  0.00    +0.000 HD
BRANCH   5   9
ATOM      2  O   UNL     1      28.625   0.333  10.309  0.00  0.00    +0.000 OA
ATOM      6  N   UNL     1      27.856   0.550   9.172  0.00  0.00    +0.000 NA
ATOM      9  C   UNL     1      28.809  -1.006  10.494  0.00  0.00    +0.000 A 
ATOM     10  C   UNL     1      28.165  -1.685   9.482  0.00  0.00    +0.000 A 
ATOM     11  C   UNL     1      27.594  -0.671   8.694  0.00  0.00    +0.000 A 
ATOM     14  C   UNL     1      28.094  -3.142   9.277  0.00  0.00    +0.000 C 
ATOM     18  C   UNL     1      26.784  -0.816   7.474  0.00  0.00    +0.000 C 
ENDBRANCH   5   9
ENDBRANCH   1   5
TORSDOF 4
ENDMDL
MODEL 5
REMARK VINA RESULT:      -6.1      3.294      5.993
REMARK  Name = 5344
REMARK  6 active torsions:
REMARK  status: ('A' for Active; 'I' for Inactive)
REMARK    1  A    between atoms: S_1  and  N_5
REMARK    2  A    between atoms: S_1  and  C_8
REMARK    3  A    between atoms: N_5  and  C_9
REMARK    4  A    between atoms: N_7  and  C_17
REMARK    5  A    between atoms: C_10  and  C_14
REMARK    6  A    between atoms: C_11  and  C_18
REMARK                            x       y       z     vdW  Elec       q    Type
REMARK                         _______ _______ _______ _____ _____    ______ ____
ROOT
ATOM      1  S   UNL     1      31.790  -1.897  12.038  0.00  0.00    +0.000 S 
ATOM      3  O   UNL     1      32.980  -1.198  12.512  0.00  0.00    +0.000 OA
ATOM      4  O   UNL     1      30.495  -1.541  12.603  0.00  0.00    +0.000 OA
ENDROOT
BRANCH   1   8
ATOM      8  C   UNL     1      32.050  -3.608  12.268  0.00  0.00    +0.000 A 
ATOM     12  C   UNL     1      32.217  -4.443  11.163  0.00  0.00    +0.000 A 
ATOM     13  C   UNL     1      32.091  -4.140  13.556  0.00  0.00    +0.000 A 
ATOM     15  C   UNL     1      32.423  -5.810  11.346  0.00  0.00    +0.000 A 
ATOM     16  C   UNL     1      32.299  -5.508  13.739  0.00  0.00    +0.000 A 
ATOM     17  C   UNL     1      32.465  -6.342  12.634  0.00  0.00    +0.000 A 
BRANCH  17   7
ATOM      7  N   UNL     1      32.675  -7.724  12.821  0.00  0.00    +0.000 N 
ATOM     20  H   UNL     1      33.422  -8.194  12.325  0.00  0.00    +0.000 HD
ATOM     21  H   UNL     1      32.078  -8.248  13.447  0.00  0.00    +0.000 HD
ENDBRANCH  17   7
ENDBRANCH   1   8
BRANCH   1   5
ATOM      5  N   UNL     1      31.731  -1.747  10.323  0.00  0.00    +0.000 N 
ATOM     19  H   UNL     1      32.287  -2.353   9.709  0.00  0.00    +0.000 HD
BRANCH   5   9
ATOM      2  O   UNL     1      30.746   0.319   9.354  0.00  0.00    +0.000 OA
ATOM      6  N   UNL     1      29.524   0.742   8.844  0.00  0.00    +0.000 NA
ATOM      9  C   UNL     1      30.655  -0.986   9.746  0.00  0.00    +0.000 A 
ATOM     10  C   UNL     1      29.376  -1.435   9.498  0.00  0.00    +0.000 A 
ATOM     11  C   UNL     1      28.722  -0.323   8.939  0.00  0.00    +0.000 A 
ATOM     14  C   UNL     1      28.824  -2.774   9.760  0.00  0.00    +0.000 C 
ATOM     18  C   UNL     1      27.327  -0.225   8.482  0.00  0.00    +0.000 C 
ENDBRANCH   5   9
ENDBRANCH   1   5
TORSDOF 4
ENDMDL
MODEL 6
REMARK VINA RESULT:      -6.0      3.700      4.315
REMARK  Name = 5344
REMARK  6 active torsions:
REMARK  status: ('A' for Active; 'I' for Inactive)
REMARK    1  A    between atoms: S_1  and  N_5
REMARK    2  A    between atoms: S_1  and  C_8
REMARK    3  A    between atoms: N_5  and  C_9
REMARK    4  A    between atoms: N_7  and  C_17
REMARK    5  A    between atoms: C_10  and  C_14
REMARK    6  A    between atoms: C_11  and  C_18
REMARK                            x       y       z     vdW  Elec       q    Type
REMARK                         _______ _______ _______ _____ _____    ______ ____
ROOT
ATOM      1  S   UNL     1      31.654  -1.954  10.949  0.00  0.00    +0.000 S 
ATOM      3  O   UNL     1      32.633  -0.878  10.848  0.00  0.00    +0.000 OA
ATOM      4  O   UNL     1      32.037  -3.295  10.523  0.00  0.00    +0.000 OA
ENDROOT
BRANCH   1   8
ATOM      8  C   UNL     1      30.235  -1.469  10.056  0.00  0.00    +0.000 A 
ATOM     12  C   UNL     1      29.098  -2.278  10.057  0.00  0.00    +0.000 A 
ATOM     13  C   UNL     1      30.236  -0.272   9.341  0.00  0.00    +0.000 A 
ATOM     15  C   UNL     1      27.965  -1.890   9.343  0.00  0.00    +0.000 A 
ATOM     16  C   UNL     1      29.102   0.117   8.627  0.00  0.00    +0.000 A 
ATOM     17  C   UNL     1      27.967  -0.693   8.628  0.00  0.00    +0.000 A 
BRANCH  17   7
ATOM      7  N   UNL     1      26.820  -0.300   7.907  0.00  0.00    +0.000 N 
ATOM     20  H   UNL     1      26.321   0.541   8.170  0.00  0.00    +0.000 HD
ATOM     21  H   UNL     1      26.494  -0.858   7.130  0.00  0.00    +0.000 HD
ENDBRANCH  17   7
ENDBRANCH   1   8
BRANCH   1   5
ATOM      5  N   UNL     1      31.083  -2.007  12.574  0.00  0.00    +0.000 N 
ATOM     19  H   UNL     1      30.082  -2.062  12.792  0.00  0.00    +0.000 HD
BRANCH   5   9
ATOM      2  O   UNL     1      32.725  -1.363  14.324  0.00  0.00    +0.000 OA
ATOM      6  N   UNL     1      33.552  -1.989  15.248  0.00  0.00    +0.000 NA
ATOM      9  C   UNL     1      32.030  -2.300  13.615  0.00  0.00    +0.000 A 
ATOM     10  C   UNL     1      32.392  -3.552  14.065  0.00  0.00    +0.000 A 
ATOM     11  C   UNL     1      33.335  -3.297  15.075  0.00  0.00    +0.000 A 
ATOM     14  C   UNL     1      31.900  -4.857  13.591  0.00  0.00    +0.000 C 
ATOM     18  C   UNL     1      34.063  -4.270  15.905  0.00  0.00    +0.000 C 
ENDBRANCH   5   9
ENDBRANCH   1   5
TORSDOF 4
ENDMDL
MODEL 7
REMARK VINA RESULT:      -5.8      2.375      6.006
REMARK  Name = 5344
REMARK  6 active torsions:
REMARK  status: ('A' for Active; 'I' for Inactive)
REMARK    1  A    between atoms: S_1  and  N_5
REMARK    2  A    between atoms: S_1  and  C_8
REMARK    3  A    between atoms: N_5  and  C_9
REMARK    4  A    between atoms: N_7  and  C_17
REMARK    5  A    between atoms: C_10  and  C_14
REMARK    6  A    between atoms: C_11  and  C_18
REMARK                            x       y       z     vdW  Elec       q    Type
REMARK                         _______ _______ _______ _____ _____    ______ ____
ROOT
ATOM      1  S   UNL     1      31.100  -2.203  11.122  0.00  0.00    +0.000 S 
ATOM      3  O   UNL     1      31.675  -2.199  12.463  0.00  0.00    +0.000 OA
ATOM      4  O   UNL     1      30.612  -3.461  10.571  0.00  0.00    +0.000 OA
ENDROOT
BRANCH   1   8
ATOM      8  C   UNL     1      32.289  -1.538  10.030  0.00  0.00    +0.000 A 
ATOM     12  C   UNL     1      33.258  -2.368   9.464  0.00  0.00    +0.000 A 
ATOM     13  C   UNL     1      32.273  -0.178   9.724  0.00  0.00    +0.000 A 
ATOM     15  C   UNL     1      34.208  -1.838   8.593  0.00  0.00    +0.000 A 
ATOM     16  C   UNL     1      33.223   0.352   8.851  0.00  0.00    +0.000 A 
ATOM     17  C   UNL     1      34.191  -0.478   8.286  0.00  0.00    +0.000 A 
BRANCH  17   7
ATOM      7  N   UNL     1      35.151   0.060   7.404  0.00  0.00    +0.000 N 
ATOM     20  H   UNL     1      36.121  -0.219   7.481  0.00  0.00    +0.000 HD
ATOM     21  H   UNL     1      34.873   0.726   6.696  0.00  0.00    +0.000 HD
ENDBRANCH  17   7
ENDBRANCH   1   8
BRANCH   1   5
ATOM      5  N   UNL     1      29.842  -1.027  11.077  0.00  0.00    +0.000 N 
ATOM     19  H   UNL     1      29.966  -0.089  11.472  0.00  0.00    +0.000 HD
BRANCH   5   9
ATOM      2  O   UNL     1      27.748  -2.186  10.407  0.00  0.00    +0.000 OA
ATOM      6  N   UNL     1      26.832  -2.147   9.362  0.00  0.00    +0.000 NA
ATOM      9  C   UNL     1      28.729  -1.260  10.196  0.00  0.00    +0.000 A 
ATOM     10  C   UNL     1      28.469  -0.603   9.013  0.00  0.00    +0.000 A 
ATOM     11  C   UNL     1      27.284  -1.193   8.542  0.00  0.00    +0.000 A 
ATOM     14  C   UNL     1      29.257   0.472   8.387  0.00  0.00    +0.000 C 
ATOM     18  C   UNL     1      26.541  -0.883   7.309  0.00  0.00    +0.000 C 
ENDBRANCH   5   9
ENDBRANCH   1   5
TORSDOF 4
ENDMDL
MODEL 8
REMARK VINA RESULT:      -5.8      3.322      6.598
REMARK  Name = 5344
REMARK  6 active torsions:
REMARK  status: ('A' for Active; 'I' for Inactive)
REMARK    1  A    between atoms: S_1  and  N_5
REMARK    2  A    between atoms: S_1  and  C_8
REMARK    3  A    between atoms: N_5  and  C_9
REMARK    4  A    between atoms: N_7  and  C_17
REMARK    5  A    between atoms: C_10  and  C_14
REMARK    6  A    between atoms: C_11  and  C_18
REMARK                            x       y       z     vdW  Elec       q    Type
REMARK                         _______ _______ _______ _____ _____    ______ ____
ROOT
ATOM      1  S   UNL     1      31.092  -2.548  10.438  0.00  0.00    +0.000 S 
ATOM      3  O   UNL     1      31.095  -3.756   9.621  0.00  0.00    +0.000 OA
ATOM      4  O   UNL     1      31.766  -1.358   9.934  0.00  0.00    +0.000 OA
ENDROOT
BRANCH   1   8
ATOM      8  C   UNL     1      31.768  -2.956  11.995  0.00  0.00    +0.000 A 
ATOM     12  C   UNL     1      32.109  -1.945  12.894  0.00  0.00    +0.000 A 
ATOM     13  C   UNL     1      31.968  -4.292  12.341  0.00  0.00    +0.000 A 
ATOM     15  C   UNL     1      32.650  -2.270  14.138  0.00  0.00    +0.000 A 
ATOM     16  C   UNL     1      32.508  -4.617  13.585  0.00  0.00    +0.000 A 
ATOM     17  C   UNL     1      32.849  -3.606  14.483  0.00  0.00    +0.000 A 
BRANCH  17   7
ATOM      7  N   UNL     1      33.394  -3.937  15.742  0.00  0.00    +0.000 N 
ATOM     20  H   UNL     1      32.783  -4.094  16.533  0.00  0.00    +0.000 HD
ATOM     21  H   UNL     1      34.396  -4.012  15.855  0.00  0.00    +0.000 HD
ENDBRANCH  17   7
ENDBRANCH   1   8
BRANCH   1   5
ATOM      5  N   UNL     1      29.456  -2.165  10.821  0.00  0.00    +0.000 N 
ATOM     19  H   UNL     1      29.197  -1.749  11.721  0.00  0.00    +0.000 HD
BRANCH   5   9
ATOM      2  O   UNL     1      27.851  -3.227   9.248  0.00  0.00    +0.000 OA
ATOM      6  N   UNL     1      27.002  -2.840   8.218  0.00  0.00    +0.000 NA
ATOM      9  C   UNL     1      28.500  -2.134   9.747  0.00  0.00    +0.000 A 
ATOM     10  C   UNL     1      28.084  -1.018   9.053  0.00  0.00    +0.000 A 
ATOM     11  C   UNL     1      27.158  -1.516   8.121  0.00  0.00    +0.000 A 
ATOM     14  C   UNL     1      28.516   0.377   9.246  0.00  0.00    +0.000 C 
ATOM     18  C   UNL     1      26.394  -0.767   7.110  0.00  0.00    +0.000 C 
ENDBRANCH   5   9
ENDBRANCH   1   5
TORSDOF 4
ENDMDL
MODEL 9
REMARK VINA RESULT:      -5.7      3.089      3.613
REMARK  Name = 5344
REMARK  6 active torsions:
REMARK  status: ('A' for Active; 'I' for Inactive)
REMARK    1  A    between atoms: S_1  and  N_5
REMARK    2  A    between atoms: S_1  and  C_8
REMARK    3  A    between atoms: N_5  and  C_9
REMARK    4  A    between atoms: N_7  and  C_17
REMARK    5  A    between atoms: C_10  and  C_14
REMARK    6  A    between atoms: C_11  and  C_18
REMARK                            x       y       z     vdW  Elec       q    Type
REMARK                         _______ _______ _______ _____ _____    ______ ____
ROOT
ATOM      1  S   UNL     1      30.816  -1.837  11.276  0.00  0.00    +0.000 S 
ATOM      3  O   UNL     1      30.278  -1.682  12.623  0.00  0.00    +0.000 OA
ATOM      4  O   UNL     1      32.016  -1.095  10.910  0.00  0.00    +0.000 OA
ENDROOT
BRANCH   1   8
ATOM      8  C   UNL     1      29.546  -1.442  10.146  0.00  0.00    +0.000 A 
ATOM     12  C   UNL     1      28.435  -2.277  10.024  0.00  0.00    +0.000 A 
ATOM     13  C   UNL     1      29.642  -0.292   9.363  0.00  0.00    +0.000 A 
ATOM     15  C   UNL     1      27.421  -1.962   9.121  0.00  0.00    +0.000 A 
ATOM     16  C   UNL     1      28.627   0.024   8.460  0.00  0.00    +0.000 A 
ATOM     17  C   UNL     1      27.516  -0.812   8.339  0.00  0.00    +0.000 A 
BRANCH  17   7
ATOM      7  N   UNL     1      26.490  -0.491   7.426  0.00  0.00    +0.000 N 
ATOM     20  H   UNL     1      25.744  -1.152   7.251  0.00  0.00    +0.000 HD
ATOM     21  H   UNL     1      26.502   0.396   6.941  0.00  0.00    +0.000 HD
ENDBRANCH  17   7
ENDBRANCH   1   8
BRANCH   1   5
ATOM      5  N   UNL     1      31.070  -3.518  10.993  0.00  0.00    +0.000 N 
ATOM     19  H   UNL     1      30.445  -4.063  10.390  0.00  0.00    +0.000 HD
BRANCH   5   9
ATOM      2  O   UNL     1      33.409  -4.194  10.496  0.00  0.00    +0.000 OA
ATOM      6  N   UNL     1      34.481  -4.780  11.160  0.00  0.00    +0.000 NA
ATOM      9  C   UNL     1      32.347  -4.078  11.346  0.00  0.00    +0.000 A 
ATOM     10  C   UNL     1      32.708  -4.585  12.576  0.00  0.00    +0.000 A 
ATOM     11  C   UNL     1      34.038  -5.003  12.401  0.00  0.00    +0.000 A 
ATOM     14  C   UNL     1      31.883  -4.667  13.794  0.00  0.00    +0.000 C 
ATOM     18  C   UNL     1      34.931  -5.627  13.391  0.00  0.00    +0.000 C 
ENDBRANCH   5   9
ENDBRANCH   1   5
TORSDOF 4
ENDMDL
MODEL 10
REMARK VINA RESULT:      -5.6      3.498      4.181
REMARK  Name = 5344
REMARK  6 active torsions:
REMARK  status: ('A' for Active; 'I' for Inactive)
REMARK    1  A    between atoms: S_1  and  N_5
REMARK    2  A    between atoms: S_1  and  C_8
REMARK    3  A    between atoms: N_5  and  C_9
REMARK    4  A    between atoms: N_7  and  C_17
REMARK    5  A    between atoms: C_10  and  C_14
REMARK    6  A    between atoms: C_11  and  C_18
REMARK                            x       y       z     vdW  Elec       q    Type
REMARK                         _______ _______ _______ _____ _____    ______ ____
ROOT
ATOM      1  S   UNL     1      31.020  -1.855  11.481  0.00  0.00    +0.000 S 
ATOM      3  O   UNL     1      30.470  -1.669  12.819  0.00  0.00    +0.000 OA
ATOM      4  O   UNL     1      32.242  -1.149  11.120  0.00  0.00    +0.000 OA
ENDROOT
BRANCH   1   8
ATOM      8  C   UNL     1      29.774  -1.440  10.331  0.00  0.00    +0.000 A 
ATOM     12  C   UNL     1      29.939  -0.339   9.490  0.00  0.00    +0.000 A 
ATOM     13  C   UNL     1      28.613  -2.209  10.252  0.00  0.00    +0.000 A 
ATOM     15  C   UNL     1      28.943  -0.007   8.571  0.00  0.00    +0.000 A 
ATOM     16  C   UNL     1      27.618  -1.877   9.332  0.00  0.00    +0.000 A 
ATOM     17  C   UNL     1      27.783  -0.776   8.492  0.00  0.00    +0.000 A 
BRANCH  17   7
ATOM      7  N   UNL     1      26.776  -0.442   7.563  0.00  0.00    +0.000 N 
ATOM     20  H   UNL     1      26.987  -0.426   6.573  0.00  0.00    +0.000 HD
ATOM     21  H   UNL     1      25.845  -0.214   7.884  0.00  0.00    +0.000 HD
ENDBRANCH  17   7
ENDBRANCH   1   8
BRANCH   1   5
ATOM      5  N   UNL     1      31.232  -3.545  11.221  0.00  0.00    +0.000 N 
ATOM     19  H   UNL     1      31.078  -3.972  10.301  0.00  0.00    +0.000 HD
BRANCH   5   9
ATOM      2  O   UNL     1      32.127  -3.899  13.512  0.00  0.00    +0.000 OA
ATOM      6  N   UNL     1      32.851  -4.864  14.203  0.00  0.00    +0.000 NA
ATOM      9  C   UNL     1      31.939  -4.300  12.221  0.00  0.00    +0.000 A 
ATOM     10  C   UNL     1      32.535  -5.530  12.048  0.00  0.00    +0.000 A 
ATOM     11  C   UNL     1      33.083  -5.829  13.308  0.00  0.00    +0.000 A 
ATOM     14  C   UNL     1      32.586  -6.343  10.821  0.00  0.00    +0.000 C 
ATOM     18  C   UNL     1      33.841  -7.025  13.708  0.00  0.00    +0.000 C 
ENDBRANCH   5   9
ENDBRANCH   1   5
TORSDOF 4
ENDMDL
