REMARK  Name = 5344
REMARK  6 active torsions:
REMARK  status: ('A' for Active; 'I' for Inactive)
REMARK    1  A    between atoms: S_1  and  N_5
REMARK    2  A    between atoms: S_1  and  C_8
REMARK    3  A    between atoms: N_5  and  C_9
REMARK    4  A    between atoms: N_7  and  C_17
REMARK    5  A    between atoms: C_10  and  C_14
REMARK    6  A    between atoms: C_11  and  C_18
REMARK                            x       y       z     vdW  Elec       q    Type
REMARK                         _______ _______ _______ _____ _____    ______ ____
ROOT
ATOM      1  S   UNL     1       0.322   1.132  -0.360  0.00  0.00    +0.000 S 
ATOM      3  O   UNL     1       0.293   1.722  -1.694  0.00  0.00    +0.000 OA
ATOM      4  O   UNL     1      -0.002   1.972   0.786  0.00  0.00    +0.000 OA
ENDROOT
BRANCH   1   8
ATOM      8  C   UNL     1       1.907   0.442  -0.117  0.00  0.00    +0.000 A 
ATOM     12  C   UNL     1       2.681   0.068  -1.216  0.00  0.00    +0.000 A 
ATOM     13  C   UNL     1       2.400   0.264   1.175  0.00  0.00    +0.000 A 
ATOM     15  C   UNL     1       3.947  -0.484  -1.022  0.00  0.00    +0.000 A 
ATOM     16  C   UNL     1       3.667  -0.287   1.369  0.00  0.00    +0.000 A 
ATOM     17  C   UNL     1       4.440  -0.661   0.270  0.00  0.00    +0.000 A 
BRANCH  17   7
ATOM      7  N   UNL     1       5.721  -1.218   0.467  0.00  0.00    +0.000 N 
ATOM     20  H   UNL     1       6.282  -1.491  -0.330  0.00  0.00    +0.000 HD
ATOM     21  H   UNL     1       6.078  -1.349   1.404  0.00  0.00    +0.000 HD
ENDBRANCH  17   7
ENDBRANCH   1   8
BRANCH   1   5
ATOM      5  N   UNL     1      -0.701  -0.254  -0.366  0.00  0.00    +0.000 N 
ATOM     19  H   UNL     1      -0.319  -1.206  -0.352  0.00  0.00    +0.000 HD
BRANCH   5   9
ATOM      2  O   UNL     1      -2.649   1.101   0.372  0.00  0.00    +0.000 OA
ATOM      6  N   UNL     1      -4.014   0.930   0.568  0.00  0.00    +0.000 NA
ATOM      9  C   UNL     1      -2.095  -0.068  -0.064  0.00  0.00    +0.000 A 
ATOM     10  C   UNL     1      -3.088  -1.019  -0.160  0.00  0.00    +0.000 A 
ATOM     11  C   UNL     1      -4.253  -0.344   0.243  0.00  0.00    +0.000 A 
ATOM     14  C   UNL     1      -2.954  -2.422  -0.587  0.00  0.00    +0.000 C 
ATOM     18  C   UNL     1      -5.623  -0.874   0.338  0.00  0.00    +0.000 C 
ENDBRANCH   5   9
ENDBRANCH   1   5
TORSDOF 4
