REMARK  Name = 6662
REMARK  7 active torsions:
REMARK  status: ('A' for Active; 'I' for Inactive)
REMARK    1  A    between atoms: S_1  and  N_6
REMARK    2  A    between atoms: S_1  and  C_10
REMARK    3  A    between atoms: N_6  and  C_9
REMARK    4  A    between atoms: N_8  and  C_19
REMARK    5  A    between atoms: C_11  and  C_16
REMARK    6  A    between atoms: C_12  and  C_20
REMARK    7  A    between atoms: C_13  and  C_21
REMARK                            x       y       z     vdW  Elec       q    Type
REMARK                         _______ _______ _______ _____ _____    ______ ____
ROOT
ATOM      1  S   UNL     1      -0.330  -1.005   1.264  0.00  0.00    +0.000 S 
ATOM      3  O   UNL     1       0.187  -0.160   2.334  0.00  0.00    +0.000 OA
ATOM      4  O   UNL     1      -0.659  -2.397   1.543  0.00  0.00    +0.000 OA
ENDROOT
BRANCH   1  10
ATOM     10  C   UNL     1      -1.748  -0.203   0.636  0.00  0.00    +0.000 A 
ATOM     14  C   UNL     1      -2.751  -0.946   0.013  0.00  0.00    +0.000 A 
ATOM     15  C   UNL     1      -1.877   1.181   0.755  0.00  0.00    +0.000 A 
ATOM     17  C   UNL     1      -3.883  -0.306  -0.490  0.00  0.00    +0.000 A 
ATOM     18  C   UNL     1      -3.009   1.821   0.252  0.00  0.00    +0.000 A 
ATOM     19  C   UNL     1      -4.012   1.078  -0.370  0.00  0.00    +0.000 A 
BRANCH  19   8
ATOM      8  N   UNL     1      -5.158   1.726  -0.877  0.00  0.00    +0.000 N 
ATOM     22  H   UNL     1      -5.885   1.189  -1.331  0.00  0.00    +0.000 HD
ATOM     23  H   UNL     1      -5.250   2.730  -0.793  0.00  0.00    +0.000 HD
ENDBRANCH  19   8
ENDBRANCH   1  10
BRANCH   1   6
ATOM      5  O   UNL     1       0.088  -3.002  -1.066  0.00  0.00    +0.000 OA
ATOM      6  N   UNL     1       0.743  -0.972  -0.092  0.00  0.00    +0.000 N 
ATOM     13  C   UNL     1       0.813  -2.009  -1.096  0.00  0.00    +0.000 C 
ATOM     21  C   UNL     1       1.805  -1.828  -2.217  0.00  0.00    +0.000 C 
BRANCH   6   9
ATOM      2  O   UNL     1       1.316   1.304  -0.910  0.00  0.00    +0.000 OA
ATOM      7  N   UNL     1       2.386   2.188  -0.845  0.00  0.00    +0.000 NA
ATOM      9  C   UNL     1       1.647   0.194  -0.234  0.00  0.00    +0.000 A 
ATOM     11  C   UNL     1       2.891   0.278   0.289  0.00  0.00    +0.000 A 
ATOM     12  C   UNL     1       3.315   1.553  -0.124  0.00  0.00    +0.000 A 
ATOM     16  C   UNL     1       3.633  -0.709   1.092  0.00  0.00    +0.000 C 
ATOM     20  C   UNL     1       4.603   2.213   0.145  0.00  0.00    +0.000 C 
ENDBRANCH   6   9
ENDBRANCH   1   6
TORSDOF 4
