MODEL 1
REMARK VINA RESULT:      -5.9      0.000      0.000
REMARK  Name = 6662
REMARK  7 active torsions:
REMARK  status: ('A' for Active; 'I' for Inactive)
REMARK    1  A    between atoms: S_1  and  N_6
REMARK    2  A    between atoms: S_1  and  C_10
REMARK    3  A    between atoms: N_6  and  C_9
REMARK    4  A    between atoms: N_8  and  C_19
REMARK    5  A    between atoms: C_11  and  C_16
REMARK    6  A    between atoms: C_12  and  C_20
REMARK    7  A    between atoms: C_13  and  C_21
REMARK                            x       y       z     vdW  Elec       q    Type
REMARK                         _______ _______ _______ _____ _____    ______ ____
ROOT
ATOM      1  S   UNL     1      32.054  -2.473  11.827  0.00  0.00    +0.000 S 
ATOM      3  O   UNL     1      32.103  -1.423  12.837  0.00  0.00    +0.000 OA
ATOM      4  O   UNL     1      32.314  -3.854  12.212  0.00  0.00    +0.000 OA
ENDROOT
BRANCH   1  10
ATOM     10  C   UNL     1      30.476  -2.379  11.086  0.00  0.00    +0.000 A 
ATOM     14  C   UNL     1      30.150  -3.230  10.030  0.00  0.00    +0.000 A 
ATOM     15  C   UNL     1      29.542  -1.451  11.548  0.00  0.00    +0.000 A 
ATOM     17  C   UNL     1      28.890  -3.155   9.436  0.00  0.00    +0.000 A 
ATOM     18  C   UNL     1      28.282  -1.376  10.955  0.00  0.00    +0.000 A 
ATOM     19  C   UNL     1      27.956  -2.228   9.900  0.00  0.00    +0.000 A 
BRANCH  19   8
ATOM      8  N   UNL     1      26.681  -2.153   9.301  0.00  0.00    +0.000 N 
ATOM     22  H   UNL     1      26.409  -1.324   8.788  0.00  0.00    +0.000 HD
ATOM     23  H   UNL     1      26.033  -2.925   9.391  0.00  0.00    +0.000 HD
ENDBRANCH  19   8
ENDBRANCH   1  10
BRANCH   1   6
ATOM      5  O   UNL     1      33.268  -4.228   9.582  0.00  0.00    +0.000 OA
ATOM      6  N   UNL     1      33.103  -2.080  10.509  0.00  0.00    +0.000 N 
ATOM     13  C   UNL     1      33.588  -3.041   9.544  0.00  0.00    +0.000 C 
ATOM     21  C   UNL     1      34.498  -2.535   8.454  0.00  0.00    +0.000 C 
BRANCH   6   9
ATOM      2  O   UNL     1      34.644  -0.174  10.925  0.00  0.00    +0.000 OA
ATOM      7  N   UNL     1      34.742   1.170  10.585  0.00  0.00    +0.000 NA
ATOM      9  C   UNL     1      33.533  -0.669  10.360  0.00  0.00    +0.000 A 
ATOM     11  C   UNL     1      32.869   0.271   9.651  0.00  0.00    +0.000 A 
ATOM     12  C   UNL     1      33.671   1.413   9.824  0.00  0.00    +0.000 A 
ATOM     16  C   UNL     1      31.617   0.150   8.884  0.00  0.00    +0.000 C 
ATOM     20  C   UNL     1      33.456   2.764   9.282  0.00  0.00    +0.000 C 
ENDBRANCH   6   9
ENDBRANCH   1   6
TORSDOF 4
ENDMDL
MODEL 2
REMARK VINA RESULT:      -5.9      2.896      3.878
REMARK  Name = 6662
REMARK  7 active torsions:
REMARK  status: ('A' for Active; 'I' for Inactive)
REMARK    1  A    between atoms: S_1  and  N_6
REMARK    2  A    between atoms: S_1  and  C_10
REMARK    3  A    between atoms: N_6  and  C_9
REMARK    4  A    between atoms: N_8  and  C_19
REMARK    5  A    between atoms: C_11  and  C_16
REMARK    6  A    between atoms: C_12  and  C_20
REMARK    7  A    between atoms: C_13  and  C_21
REMARK                            x       y       z     vdW  Elec       q    Type
REMARK                         _______ _______ _______ _____ _____    ______ ____
ROOT
ATOM      1  S   UNL     1      32.747  -2.452  11.110  0.00  0.00    +0.000 S 
ATOM      3  O   UNL     1      33.265  -3.602  10.379  0.00  0.00    +0.000 OA
ATOM      4  O   UNL     1      33.342  -1.139  10.898  0.00  0.00    +0.000 OA
ENDROOT
BRANCH   1  10
ATOM     10  C   UNL     1      31.039  -2.364  10.758  0.00  0.00    +0.000 A 
ATOM     14  C   UNL     1      30.470  -3.246   9.839  0.00  0.00    +0.000 A 
ATOM     15  C   UNL     1      30.244  -1.410  11.394  0.00  0.00    +0.000 A 
ATOM     17  C   UNL     1      29.107  -3.175   9.556  0.00  0.00    +0.000 A 
ATOM     18  C   UNL     1      28.881  -1.339  11.111  0.00  0.00    +0.000 A 
ATOM     19  C   UNL     1      28.312  -2.222  10.193  0.00  0.00    +0.000 A 
BRANCH  19   8
ATOM      8  N   UNL     1      26.932  -2.151   9.909  0.00  0.00    +0.000 N 
ATOM     22  H   UNL     1      26.286  -2.779  10.369  0.00  0.00    +0.000 HD
ATOM     23  H   UNL     1      26.588  -1.475   9.239  0.00  0.00    +0.000 HD
ENDBRANCH  19   8
ENDBRANCH   1  10
BRANCH   1   6
ATOM      5  O   UNL     1      31.975  -4.982  12.721  0.00  0.00    +0.000 OA
ATOM      6  N   UNL     1      32.757  -2.773  12.810  0.00  0.00    +0.000 N 
ATOM     13  C   UNL     1      32.350  -4.028  13.400  0.00  0.00    +0.000 C 
ATOM     21  C   UNL     1      32.418  -4.147  14.902  0.00  0.00    +0.000 C 
BRANCH   6   9
ATOM      2  O   UNL     1      32.391  -0.765  14.227  0.00  0.00    +0.000 OA
ATOM      7  N   UNL     1      33.142   0.086  15.029  0.00  0.00    +0.000 NA
ATOM      9  C   UNL     1      33.213  -1.694  13.718  0.00  0.00    +0.000 A 
ATOM     11  C   UNL     1      34.487  -1.519  14.134  0.00  0.00    +0.000 A 
ATOM     12  C   UNL     1      34.390  -0.384  14.958  0.00  0.00    +0.000 A 
ATOM     16  C   UNL     1      35.689  -2.308  13.814  0.00  0.00    +0.000 C 
ATOM     20  C   UNL     1      35.466   0.292  15.702  0.00  0.00    +0.000 C 
ENDBRANCH   6   9
ENDBRANCH   1   6
TORSDOF 4
ENDMDL
MODEL 3
REMARK VINA RESULT:      -5.7      1.690      2.130
REMARK  Name = 6662
REMARK  7 active torsions:
REMARK  status: ('A' for Active; 'I' for Inactive)
REMARK    1  A    between atoms: S_1  and  N_6
REMARK    2  A    between atoms: S_1  and  C_10
REMARK    3  A    between atoms: N_6  and  C_9
REMARK    4  A    between atoms: N_8  and  C_19
REMARK    5  A    between atoms: C_11  and  C_16
REMARK    6  A    between atoms: C_12  and  C_20
REMARK    7  A    between atoms: C_13  and  C_21
REMARK                            x       y       z     vdW  Elec       q    Type
REMARK                         _______ _______ _______ _____ _____    ______ ____
ROOT
ATOM      1  S   UNL     1      31.218  -2.247  11.248  0.00  0.00    +0.000 S 
ATOM      3  O   UNL     1      31.134  -1.401  12.433  0.00  0.00    +0.000 OA
ATOM      4  O   UNL     1      31.157  -3.695  11.393  0.00  0.00    +0.000 OA
ENDROOT
BRANCH   1  10
ATOM     10  C   UNL     1      29.940  -1.731  10.176  0.00  0.00    +0.000 A 
ATOM     14  C   UNL     1      28.851  -2.570   9.935  0.00  0.00    +0.000 A 
ATOM     15  C   UNL     1      30.008  -0.482   9.558  0.00  0.00    +0.000 A 
ATOM     17  C   UNL     1      27.831  -2.159   9.078  0.00  0.00    +0.000 A 
ATOM     18  C   UNL     1      28.988  -0.072   8.701  0.00  0.00    +0.000 A 
ATOM     19  C   UNL     1      27.899  -0.910   8.461  0.00  0.00    +0.000 A 
BRANCH  19   8
ATOM      8  N   UNL     1      26.866  -0.493   7.595  0.00  0.00    +0.000 N 
ATOM     22  H   UNL     1      26.117  -1.129   7.357  0.00  0.00    +0.000 HD
ATOM     23  H   UNL     1      26.879   0.441   7.206  0.00  0.00    +0.000 HD
ENDBRANCH  19   8
ENDBRANCH   1  10
BRANCH   1   6
ATOM      5  O   UNL     1      32.543  -3.648   8.825  0.00  0.00    +0.000 OA
ATOM      6  N   UNL     1      32.638  -1.861  10.340  0.00  0.00    +0.000 N 
ATOM     13  C   UNL     1      33.125  -2.641   9.226  0.00  0.00    +0.000 C 
ATOM     21  C   UNL     1      34.382  -2.168   8.540  0.00  0.00    +0.000 C 
BRANCH   6   9
ATOM      2  O   UNL     1      33.274   0.531  10.112  0.00  0.00    +0.000 OA
ATOM      7  N   UNL     1      34.132   1.437  10.723  0.00  0.00    +0.000 NA
ATOM      9  C   UNL     1      33.404  -0.653  10.729  0.00  0.00    +0.000 A 
ATOM     11  C   UNL     1      34.309  -0.598  11.731  0.00  0.00    +0.000 A 
ATOM     12  C   UNL     1      34.740   0.739  11.688  0.00  0.00    +0.000 A 
ATOM     16  C   UNL     1      34.748  -1.663  12.649  0.00  0.00    +0.000 C 
ATOM     20  C   UNL     1      35.734   1.401  12.548  0.00  0.00    +0.000 C 
ENDBRANCH   6   9
ENDBRANCH   1   6
TORSDOF 4
ENDMDL
MODEL 4
REMARK VINA RESULT:      -5.7      3.323      4.215
REMARK  Name = 6662
REMARK  7 active torsions:
REMARK  status: ('A' for Active; 'I' for Inactive)
REMARK    1  A    between atoms: S_1  and  N_6
REMARK    2  A    between atoms: S_1  and  C_10
REMARK    3  A    between atoms: N_6  and  C_9
REMARK    4  A    between atoms: N_8  and  C_19
REMARK    5  A    between atoms: C_11  and  C_16
REMARK    6  A    between atoms: C_12  and  C_20
REMARK    7  A    between atoms: C_13  and  C_21
REMARK                            x       y       z     vdW  Elec       q    Type
REMARK                         _______ _______ _______ _____ _____    ______ ____
ROOT
ATOM      1  S   UNL     1      32.750  -2.817  13.189  0.00  0.00    +0.000 S 
ATOM      3  O   UNL     1      32.147  -2.980  14.506  0.00  0.00    +0.000 OA
ATOM      4  O   UNL     1      33.678  -3.826  12.693  0.00  0.00    +0.000 OA
ENDROOT
BRANCH   1  10
ATOM     10  C   UNL     1      31.434  -2.652  12.054  0.00  0.00    +0.000 A 
ATOM     14  C   UNL     1      30.451  -1.684  12.262  0.00  0.00    +0.000 A 
ATOM     15  C   UNL     1      31.363  -3.490  10.940  0.00  0.00    +0.000 A 
ATOM     17  C   UNL     1      29.398  -1.553  11.357  0.00  0.00    +0.000 A 
ATOM     18  C   UNL     1      30.311  -3.358  10.035  0.00  0.00    +0.000 A 
ATOM     19  C   UNL     1      29.329  -2.390  10.243  0.00  0.00    +0.000 A 
BRANCH  19   8
ATOM      8  N   UNL     1      28.265  -2.257   9.325  0.00  0.00    +0.000 N 
ATOM     22  H   UNL     1      28.416  -2.446   8.343  0.00  0.00    +0.000 HD
ATOM     23  H   UNL     1      27.352  -1.965   9.649  0.00  0.00    +0.000 HD
ENDBRANCH  19   8
ENDBRANCH   1  10
BRANCH   1   6
ATOM      5  O   UNL     1      33.714  -1.182  10.741  0.00  0.00    +0.000 OA
ATOM      6  N   UNL     1      33.528  -1.276  13.077  0.00  0.00    +0.000 N 
ATOM     13  C   UNL     1      33.923  -0.656  11.833  0.00  0.00    +0.000 C 
ATOM     21  C   UNL     1      34.592   0.693  11.909  0.00  0.00    +0.000 C 
BRANCH   6   9
ATOM      2  O   UNL     1      32.944   0.316  14.894  0.00  0.00    +0.000 OA
ATOM      7  N   UNL     1      33.519   0.817  16.055  0.00  0.00    +0.000 NA
ATOM      9  C   UNL     1      33.807  -0.546  14.336  0.00  0.00    +0.000 A 
ATOM     11  C   UNL     1      34.943  -0.657  15.061  0.00  0.00    +0.000 A 
ATOM     12  C   UNL     1      34.713   0.222  16.134  0.00  0.00    +0.000 A 
ATOM     16  C   UNL     1      36.134  -1.485  14.806  0.00  0.00    +0.000 C 
ATOM     20  C   UNL     1      35.605   0.529  17.263  0.00  0.00    +0.000 C 
ENDBRANCH   6   9
ENDBRANCH   1   6
TORSDOF 4
ENDMDL
MODEL 5
REMARK VINA RESULT:      -5.6     19.393     21.683
REMARK  Name = 6662
REMARK  7 active torsions:
REMARK  status: ('A' for Active; 'I' for Inactive)
REMARK    1  A    between atoms: S_1  and  N_6
REMARK    2  A    between atoms: S_1  and  C_10
REMARK    3  A    between atoms: N_6  and  C_9
REMARK    4  A    between atoms: N_8  and  C_19
REMARK    5  A    between atoms: C_11  and  C_16
REMARK    6  A    between atoms: C_12  and  C_20
REMARK    7  A    between atoms: C_13  and  C_21
REMARK                            x       y       z     vdW  Elec       q    Type
REMARK                         _______ _______ _______ _____ _____    ______ ____
ROOT
ATOM      1  S   UNL     1      16.094  -9.150  22.096  0.00  0.00    +0.000 S 
ATOM      3  O   UNL     1      15.247  -9.624  21.008  0.00  0.00    +0.000 OA
ATOM      4  O   UNL     1      16.649  -7.803  22.039  0.00  0.00    +0.000 OA
ENDROOT
BRANCH   1  10
ATOM     10  C   UNL     1      15.162  -9.317  23.563  0.00  0.00    +0.000 A 
ATOM     14  C   UNL     1      15.558  -8.647  24.721  0.00  0.00    +0.000 A 
ATOM     15  C   UNL     1      14.023 -10.123  23.578  0.00  0.00    +0.000 A 
ATOM     17  C   UNL     1      14.816  -8.781  25.893  0.00  0.00    +0.000 A 
ATOM     18  C   UNL     1      13.281 -10.257  24.750  0.00  0.00    +0.000 A 
ATOM     19  C   UNL     1      13.676  -9.586  25.907  0.00  0.00    +0.000 A 
BRANCH  19   8
ATOM      8  N   UNL     1      12.923  -9.721  27.093  0.00  0.00    +0.000 N 
ATOM     22  H   UNL     1      13.380  -9.984  27.956  0.00  0.00    +0.000 HD
ATOM     23  H   UNL     1      11.924  -9.562  27.078  0.00  0.00    +0.000 HD
ENDBRANCH  19   8
ENDBRANCH   1  10
BRANCH   1   6
ATOM      5  O   UNL     1      16.145 -12.235  22.354  0.00  0.00    +0.000 OA
ATOM      6  N   UNL     1      17.399 -10.254  22.360  0.00  0.00    +0.000 N 
ATOM     13  C   UNL     1      17.240 -11.686  22.464  0.00  0.00    +0.000 C 
ATOM     21  C   UNL     1      18.482 -12.510  22.696  0.00  0.00    +0.000 C 
BRANCH   6   9
ATOM      2  O   UNL     1      19.558  -9.443  21.433  0.00  0.00    +0.000 OA
ATOM      7  N   UNL     1      20.760  -8.931  21.906  0.00  0.00    +0.000 NA
ATOM      9  C   UNL     1      18.766  -9.696  22.486  0.00  0.00    +0.000 A 
ATOM     11  C   UNL     1      19.370  -9.381  23.654  0.00  0.00    +0.000 A 
ATOM     12  C   UNL     1      20.624  -8.904  23.235  0.00  0.00    +0.000 A 
ATOM     16  C   UNL     1      18.858  -9.502  25.030  0.00  0.00    +0.000 C 
ATOM     20  C   UNL     1      21.732  -8.408  24.069  0.00  0.00    +0.000 C 
ENDBRANCH   6   9
ENDBRANCH   1   6
TORSDOF 4
ENDMDL
MODEL 6
REMARK VINA RESULT:      -5.6      1.739      3.498
REMARK  Name = 6662
REMARK  7 active torsions:
REMARK  status: ('A' for Active; 'I' for Inactive)
REMARK    1  A    between atoms: S_1  and  N_6
REMARK    2  A    between atoms: S_1  and  C_10
REMARK    3  A    between atoms: N_6  and  C_9
REMARK    4  A    between atoms: N_8  and  C_19
REMARK    5  A    between atoms: C_11  and  C_16
REMARK    6  A    between atoms: C_12  and  C_20
REMARK    7  A    between atoms: C_13  and  C_21
REMARK                            x       y       z     vdW  Elec       q    Type
REMARK                         _______ _______ _______ _____ _____    ______ ____
ROOT
ATOM      1  S   UNL     1      31.961  -2.489  11.962  0.00  0.00    +0.000 S 
ATOM      3  O   UNL     1      32.040  -1.343  12.860  0.00  0.00    +0.000 OA
ATOM      4  O   UNL     1      32.118  -3.835  12.499  0.00  0.00    +0.000 OA
ENDROOT
BRANCH   1  10
ATOM     10  C   UNL     1      30.420  -2.381  11.149  0.00  0.00    +0.000 A 
ATOM     14  C   UNL     1      30.129  -3.239  10.088  0.00  0.00    +0.000 A 
ATOM     15  C   UNL     1      29.480  -1.434  11.557  0.00  0.00    +0.000 A 
ATOM     17  C   UNL     1      28.899  -3.152   9.437  0.00  0.00    +0.000 A 
ATOM     18  C   UNL     1      28.250  -1.347  10.906  0.00  0.00    +0.000 A 
ATOM     19  C   UNL     1      27.960  -2.206   9.847  0.00  0.00    +0.000 A 
BRANCH  19   8
ATOM      8  N   UNL     1      26.714  -2.118   9.190  0.00  0.00    +0.000 N 
ATOM     22  H   UNL     1      25.994  -2.803   9.375  0.00  0.00    +0.000 HD
ATOM     23  H   UNL     1      26.544  -1.374   8.526  0.00  0.00    +0.000 HD
ENDBRANCH  19   8
ENDBRANCH   1  10
BRANCH   1   6
ATOM      5  O   UNL     1      32.253  -0.275   9.816  0.00  0.00    +0.000 OA
ATOM      6  N   UNL     1      33.081  -2.302  10.657  0.00  0.00    +0.000 N 
ATOM     13  C   UNL     1      33.068  -1.193   9.731  0.00  0.00    +0.000 C 
ATOM     21  C   UNL     1      34.116  -1.178   8.647  0.00  0.00    +0.000 C 
BRANCH   6   9
ATOM      2  O   UNL     1      35.328  -3.285  11.056  0.00  0.00    +0.000 OA
ATOM      7  N   UNL     1      36.046  -4.413  10.678  0.00  0.00    +0.000 NA
ATOM      9  C   UNL     1      34.119  -3.344  10.479  0.00  0.00    +0.000 A 
ATOM     11  C   UNL     1      33.977  -4.458   9.726  0.00  0.00    +0.000 A 
ATOM     12  C   UNL     1      35.218  -5.099   9.884  0.00  0.00    +0.000 A 
ATOM     16  C   UNL     1      32.820  -4.905   8.931  0.00  0.00    +0.000 C 
ATOM     20  C   UNL     1      35.665  -6.372   9.294  0.00  0.00    +0.000 C 
ENDBRANCH   6   9
ENDBRANCH   1   6
TORSDOF 4
ENDMDL
MODEL 7
REMARK VINA RESULT:      -5.6      1.548      2.443
REMARK  Name = 6662
REMARK  7 active torsions:
REMARK  status: ('A' for Active; 'I' for Inactive)
REMARK    1  A    between atoms: S_1  and  N_6
REMARK    2  A    between atoms: S_1  and  C_10
REMARK    3  A    between atoms: N_6  and  C_9
REMARK    4  A    between atoms: N_8  and  C_19
REMARK    5  A    between atoms: C_11  and  C_16
REMARK    6  A    between atoms: C_12  and  C_20
REMARK    7  A    between atoms: C_13  and  C_21
REMARK                            x       y       z     vdW  Elec       q    Type
REMARK                         _______ _______ _______ _____ _____    ______ ____
ROOT
ATOM      1  S   UNL     1      32.437  -3.256  11.939  0.00  0.00    +0.000 S 
ATOM      3  O   UNL     1      32.170  -3.614  13.327  0.00  0.00    +0.000 OA
ATOM      4  O   UNL     1      33.068  -4.228  11.055  0.00  0.00    +0.000 OA
ENDROOT
BRANCH   1  10
ATOM     10  C   UNL     1      30.909  -2.770  11.246  0.00  0.00    +0.000 A 
ATOM     14  C   UNL     1      30.434  -3.398  10.095  0.00  0.00    +0.000 A 
ATOM     15  C   UNL     1      30.166  -1.751  11.843  0.00  0.00    +0.000 A 
ATOM     17  C   UNL     1      29.215  -3.009   9.541  0.00  0.00    +0.000 A 
ATOM     18  C   UNL     1      28.947  -1.362  11.289  0.00  0.00    +0.000 A 
ATOM     19  C   UNL     1      28.471  -1.991  10.138  0.00  0.00    +0.000 A 
BRANCH  19   8
ATOM      8  N   UNL     1      27.237  -1.598   9.579  0.00  0.00    +0.000 N 
ATOM     22  H   UNL     1      26.528  -2.291   9.377  0.00  0.00    +0.000 HD
ATOM     23  H   UNL     1      27.063  -0.623   9.373  0.00  0.00    +0.000 HD
ENDBRANCH  19   8
ENDBRANCH   1  10
BRANCH   1   6
ATOM      5  O   UNL     1      32.866  -1.002  14.019  0.00  0.00    +0.000 OA
ATOM      6  N   UNL     1      33.356  -1.793  11.867  0.00  0.00    +0.000 N 
ATOM     13  C   UNL     1      33.441  -0.835  12.945  0.00  0.00    +0.000 C 
ATOM     21  C   UNL     1      34.288   0.393  12.722  0.00  0.00    +0.000 C 
BRANCH   6   9
ATOM      2  O   UNL     1      35.352  -1.947  10.393  0.00  0.00    +0.000 OA
ATOM      7  N   UNL     1      35.750  -1.497   9.140  0.00  0.00    +0.000 NA
ATOM      9  C   UNL     1      34.106  -1.505  10.621  0.00  0.00    +0.000 A 
ATOM     11  C   UNL     1      33.636  -0.774   9.585  0.00  0.00    +0.000 A 
ATOM     12  C   UNL     1      34.709  -0.798   8.677  0.00  0.00    +0.000 A 
ATOM     16  C   UNL     1      32.330  -0.111   9.429  0.00  0.00    +0.000 C 
ATOM     20  C   UNL     1      34.790  -0.167   7.350  0.00  0.00    +0.000 C 
ENDBRANCH   6   9
ENDBRANCH   1   6
TORSDOF 4
ENDMDL
MODEL 8
REMARK VINA RESULT:      -5.6      2.627      5.185
REMARK  Name = 6662
REMARK  7 active torsions:
REMARK  status: ('A' for Active; 'I' for Inactive)
REMARK    1  A    between atoms: S_1  and  N_6
REMARK    2  A    between atoms: S_1  and  C_10
REMARK    3  A    between atoms: N_6  and  C_9
REMARK    4  A    between atoms: N_8  and  C_19
REMARK    5  A    between atoms: C_11  and  C_16
REMARK    6  A    between atoms: C_12  and  C_20
REMARK    7  A    between atoms: C_13  and  C_21
REMARK                            x       y       z     vdW  Elec       q    Type
REMARK                         _______ _______ _______ _____ _____    ______ ____
ROOT
ATOM      1  S   UNL     1      32.296  -2.497  13.124  0.00  0.00    +0.000 S 
ATOM      3  O   UNL     1      31.071  -2.752  13.873  0.00  0.00    +0.000 OA
ATOM      4  O   UNL     1      33.389  -1.773  13.761  0.00  0.00    +0.000 OA
ENDROOT
BRANCH   1  10
ATOM     10  C   UNL     1      32.883  -4.049  12.583  0.00  0.00    +0.000 A 
ATOM     14  C   UNL     1      34.151  -4.154  12.011  0.00  0.00    +0.000 A 
ATOM     15  C   UNL     1      32.083  -5.184  12.721  0.00  0.00    +0.000 A 
ATOM     17  C   UNL     1      34.620  -5.394  11.578  0.00  0.00    +0.000 A 
ATOM     18  C   UNL     1      32.552  -6.423  12.287  0.00  0.00    +0.000 A 
ATOM     19  C   UNL     1      33.820  -6.529  11.716  0.00  0.00    +0.000 A 
BRANCH  19   8
ATOM      8  N   UNL     1      34.295  -7.783  11.279  0.00  0.00    +0.000 N 
ATOM     22  H   UNL     1      33.889  -8.634  11.645  0.00  0.00    +0.000 HD
ATOM     23  H   UNL     1      35.048  -7.833  10.605  0.00  0.00    +0.000 HD
ENDBRANCH  19   8
ENDBRANCH   1  10
BRANCH   1   6
ATOM      5  O   UNL     1      34.038  -0.756  11.246  0.00  0.00    +0.000 OA
ATOM      6  N   UNL     1      31.927  -1.702  11.633  0.00  0.00    +0.000 N 
ATOM     13  C   UNL     1      32.874  -0.911  10.881  0.00  0.00    +0.000 C 
ATOM     21  C   UNL     1      32.393  -0.283   9.597  0.00  0.00    +0.000 C 
BRANCH   6   9
ATOM      2  O   UNL     1      29.536  -1.048  11.455  0.00  0.00    +0.000 OA
ATOM      7  N   UNL     1      28.401  -1.454  10.763  0.00  0.00    +0.000 NA
ATOM      9  C   UNL     1      30.554  -1.842  11.092  0.00  0.00    +0.000 A 
ATOM     11  C   UNL     1      30.169  -2.769  10.187  0.00  0.00    +0.000 A 
ATOM     12  C   UNL     1      28.804  -2.484  10.013  0.00  0.00    +0.000 A 
ATOM     16  C   UNL     1      30.966  -3.824   9.536  0.00  0.00    +0.000 C 
ATOM     20  C   UNL     1      27.838  -3.167   9.137  0.00  0.00    +0.000 C 
ENDBRANCH   6   9
ENDBRANCH   1   6
TORSDOF 4
ENDMDL
MODEL 9
REMARK VINA RESULT:      -5.5      3.168      5.672
REMARK  Name = 6662
REMARK  7 active torsions:
REMARK  status: ('A' for Active; 'I' for Inactive)
REMARK    1  A    between atoms: S_1  and  N_6
REMARK    2  A    between atoms: S_1  and  C_10
REMARK    3  A    between atoms: N_6  and  C_9
REMARK    4  A    between atoms: N_8  and  C_19
REMARK    5  A    between atoms: C_11  and  C_16
REMARK    6  A    between atoms: C_12  and  C_20
REMARK    7  A    between atoms: C_13  and  C_21
REMARK                            x       y       z     vdW  Elec       q    Type
REMARK                         _______ _______ _______ _____ _____    ______ ____
ROOT
ATOM      1  S   UNL     1      32.936  -2.830  13.189  0.00  0.00    +0.000 S 
ATOM      3  O   UNL     1      34.033  -3.776  13.021  0.00  0.00    +0.000 OA
ATOM      4  O   UNL     1      31.668  -3.291  13.739  0.00  0.00    +0.000 OA
ENDROOT
BRANCH   1  10
ATOM     10  C   UNL     1      33.546  -1.531  14.184  0.00  0.00    +0.000 A 
ATOM     14  C   UNL     1      34.705  -1.716  14.938  0.00  0.00    +0.000 A 
ATOM     15  C   UNL     1      32.873  -0.310  14.226  0.00  0.00    +0.000 A 
ATOM     17  C   UNL     1      35.192  -0.679  15.734  0.00  0.00    +0.000 A 
ATOM     18  C   UNL     1      33.359   0.726  15.022  0.00  0.00    +0.000 A 
ATOM     19  C   UNL     1      34.519   0.542  15.776  0.00  0.00    +0.000 A 
BRANCH  19   8
ATOM      8  N   UNL     1      35.011   1.592  16.579  0.00  0.00    +0.000 N 
ATOM     22  H   UNL     1      34.493   2.457  16.657  0.00  0.00    +0.000 HD
ATOM     23  H   UNL     1      35.888   1.482  17.072  0.00  0.00    +0.000 HD
ENDBRANCH  19   8
ENDBRANCH   1  10
BRANCH   1   6
ATOM      5  O   UNL     1      34.802  -1.355  11.206  0.00  0.00    +0.000 OA
ATOM      6  N   UNL     1      32.609  -2.026  11.693  0.00  0.00    +0.000 N 
ATOM     13  C   UNL     1      33.615  -1.372  10.887  0.00  0.00    +0.000 C 
ATOM     21  C   UNL     1      33.163  -0.716   9.607  0.00  0.00    +0.000 C 
BRANCH   6   9
ATOM      2  O   UNL     1      30.311  -1.085  11.583  0.00  0.00    +0.000 OA
ATOM      7  N   UNL     1      29.109  -1.363  10.945  0.00  0.00    +0.000 NA
ATOM      9  C   UNL     1      31.209  -2.008  11.207  0.00  0.00    +0.000 A 
ATOM     11  C   UNL     1      30.677  -2.902  10.343  0.00  0.00    +0.000 A 
ATOM     12  C   UNL     1      29.352  -2.453  10.210  0.00  0.00    +0.000 A 
ATOM     16  C   UNL     1      31.311  -4.062   9.695  0.00  0.00    +0.000 C 
ATOM     20  C   UNL     1      28.275  -3.032   9.391  0.00  0.00    +0.000 C 
ENDBRANCH   6   9
ENDBRANCH   1   6
TORSDOF 4
ENDMDL
MODEL 10
REMARK VINA RESULT:      -5.4      2.600      4.888
REMARK  Name = 6662
REMARK  7 active torsions:
REMARK  status: ('A' for Active; 'I' for Inactive)
REMARK    1  A    between atoms: S_1  and  N_6
REMARK    2  A    between atoms: S_1  and  C_10
REMARK    3  A    between atoms: N_6  and  C_9
REMARK    4  A    between atoms: N_8  and  C_19
REMARK    5  A    between atoms: C_11  and  C_16
REMARK    6  A    between atoms: C_12  and  C_20
REMARK    7  A    between atoms: C_13  and  C_21
REMARK                            x       y       z     vdW  Elec       q    Type
REMARK                         _______ _______ _______ _____ _____    ______ ____
ROOT
ATOM      1  S   UNL     1      32.590  -2.141  10.499  0.00  0.00    +0.000 S 
ATOM      3  O   UNL     1      33.227  -2.921   9.444  0.00  0.00    +0.000 OA
ATOM      4  O   UNL     1      33.141  -0.844  10.867  0.00  0.00    +0.000 OA
ENDROOT
BRANCH   1  10
ATOM     10  C   UNL     1      30.921  -1.934  10.027  0.00  0.00    +0.000 A 
ATOM     14  C   UNL     1      30.053  -3.026  10.034  0.00  0.00    +0.000 A 
ATOM     15  C   UNL     1      30.457  -0.676   9.640  0.00  0.00    +0.000 A 
ATOM     17  C   UNL     1      28.722  -2.861   9.656  0.00  0.00    +0.000 A 
ATOM     18  C   UNL     1      29.125  -0.512   9.261  0.00  0.00    +0.000 A 
ATOM     19  C   UNL     1      28.257  -1.603   9.270  0.00  0.00    +0.000 A 
BRANCH  19   8
ATOM      8  N   UNL     1      26.909  -1.436   8.889  0.00  0.00    +0.000 N 
ATOM     22  H   UNL     1      26.254  -2.198   8.996  0.00  0.00    +0.000 HD
ATOM     23  H   UNL     1      26.599  -0.554   8.502  0.00  0.00    +0.000 HD
ENDBRANCH  19   8
ENDBRANCH   1  10
BRANCH   1   6
ATOM      5  O   UNL     1      31.434  -1.466  13.292  0.00  0.00    +0.000 OA
ATOM      6  N   UNL     1      32.450  -3.090  11.938  0.00  0.00    +0.000 N 
ATOM     13  C   UNL     1      31.883  -2.606  13.176  0.00  0.00    +0.000 C 
ATOM     21  C   UNL     1      31.834  -3.561  14.341  0.00  0.00    +0.000 C 
BRANCH   6   9
ATOM      2  O   UNL     1      32.155  -5.538  11.628  0.00  0.00    +0.000 OA
ATOM      7  N   UNL     1      32.933  -6.688  11.676  0.00  0.00    +0.000 NA
ATOM      9  C   UNL     1      32.943  -4.487  11.900  0.00  0.00    +0.000 A 
ATOM     11  C   UNL     1      34.220  -4.865  12.131  0.00  0.00    +0.000 A 
ATOM     12  C   UNL     1      34.162  -6.261  11.979  0.00  0.00    +0.000 A 
ATOM     16  C   UNL     1      35.392  -4.036  12.463  0.00  0.00    +0.000 C 
ATOM     20  C   UNL     1      35.258  -7.235  12.112  0.00  0.00    +0.000 C 
ENDBRANCH   6   9
ENDBRANCH   1   6
TORSDOF 4
ENDMDL
