REMARK  Name = 65280
REMARK  5 active torsions:
REMARK  status: ('A' for Active; 'I' for Inactive)
REMARK    1  A    between atoms: S_1  and  N_6
REMARK    2  A    between atoms: S_1  and  C_9
REMARK    3  A    between atoms: N_7  and  C_12
REMARK    4  A    between atoms: C_17  and  C_18
REMARK    5  A    between atoms: C_19  and  C_20
REMARK                            x       y       z     vdW  Elec       q    Type
REMARK                         _______ _______ _______ _____ _____    ______ ____
ROOT
ATOM      1  S   UNL     1       1.254  -2.096  -0.371  0.00  0.00    +0.000 S 
ATOM      2  O   UNL     1       1.221  -3.470   0.115  0.00  0.00    +0.000 OA
ATOM      3  O   UNL     1       1.635  -1.833  -1.753  0.00  0.00    +0.000 OA
ENDROOT
BRANCH   1   6
ATOM      4  O   UNL     1       3.586   1.712  -0.851  0.00  0.00    +0.000 OA
ATOM      6  N   UNL     1       2.236  -1.161   0.668  0.00  0.00    +0.000 N 
ATOM      8  N   UNL     1       2.809   0.561  -0.911  0.00  0.00    +0.000 NA
ATOM     15  C   UNL     1       2.895   0.037   0.306  0.00  0.00    +0.000 A 
ATOM     16  C   UNL     1       3.694   0.787   1.175  0.00  0.00    +0.000 A 
ATOM     17  C   UNL     1       4.108   1.836   0.396  0.00  0.00    +0.000 A 
ATOM     18  C   UNL     1       4.961   3.006   0.637  0.00  0.00    +0.000 C 
ATOM     21  H   UNL     1       2.440  -1.535   1.603  0.00  0.00    +0.000 HD
ENDBRANCH   1   6
BRANCH   1   9
ATOM      9  C   UNL     1      -0.315  -1.382  -0.095  0.00  0.00    +0.000 A 
ATOM     10  C   UNL     1      -0.742  -0.311  -0.880  0.00  0.00    +0.000 A 
ATOM     11  C   UNL     1      -1.141  -1.883   0.911  0.00  0.00    +0.000 A 
ATOM     12  C   UNL     1      -2.822  -0.241   0.346  0.00  0.00    +0.000 A 
ATOM     13  C   UNL     1      -1.995   0.259  -0.660  0.00  0.00    +0.000 A 
ATOM     14  C   UNL     1      -2.395  -1.312   1.132  0.00  0.00    +0.000 A 
BRANCH  12   7
ATOM      5  O   UNL     1      -4.201   2.046  -1.046  0.00  0.00    +0.000 OA
ATOM      7  N   UNL     1      -4.076   0.330   0.566  0.00  0.00    +0.000 N 
ATOM     19  C   UNL     1      -4.671   1.400  -0.114  0.00  0.00    +0.000 C 
ATOM     20  C   UNL     1      -6.042   1.716   0.429  0.00  0.00    +0.000 C 
ATOM     22  H   UNL     1      -4.619  -0.091   1.318  0.00  0.00    +0.000 HD
ENDBRANCH  12   7
ENDBRANCH   1   9
TORSDOF 3
