REMARK  Name = 114821
REMARK  5 active torsions:
REMARK  status: ('A' for Active; 'I' for Inactive)
REMARK    1  A    between atoms: S_1  and  N_6
REMARK    2  A    between atoms: S_1  and  C_9
REMARK    3  A    between atoms: O_5  and  N_8
REMARK    4  A    between atoms: N_8  and  C_13
REMARK    5  A    between atoms: C_17  and  C_18
REMARK                            x       y       z     vdW  Elec       q    Type
REMARK                         _______ _______ _______ _____ _____    ______ ____
ROOT
ATOM      1  S   UNL     1       0.647   2.313  -0.182  0.00  0.00    +0.000 S 
ATOM      2  O   UNL     1       0.332   3.513   0.585  0.00  0.00    +0.000 OA
ATOM      3  O   UNL     1       0.982   2.451  -1.594  0.00  0.00    +0.000 OA
ENDROOT
BRANCH   1   6
ATOM      4  O   UNL     1       2.435  -1.622  -0.957  0.00  0.00    +0.000 OA
ATOM      6  N   UNL     1       1.913   1.475   0.632  0.00  0.00    +0.000 N 
ATOM      7  N   UNL     1       2.108  -0.273  -1.011  0.00  0.00    +0.000 NA
ATOM     12  C   UNL     1       2.183   0.116   0.244  0.00  0.00    +0.000 A 
ATOM     16  C   UNL     1       2.538  -0.877   1.142  0.00  0.00    +0.000 A 
ATOM     17  C   UNL     1       2.689  -1.970   0.331  0.00  0.00    +0.000 A 
ATOM     18  C   UNL     1       3.053  -3.372   0.572  0.00  0.00    +0.000 C 
ATOM     19  H   UNL     1       2.055   1.698   1.626  0.00  0.00    +0.000 HD
ENDBRANCH   1   6
BRANCH   1   9
ATOM      9  C   UNL     1      -0.703   1.217  -0.032  0.00  0.00    +0.000 A 
ATOM     10  C   UNL     1      -1.559   1.309   1.066  0.00  0.00    +0.000 A 
ATOM     11  C   UNL     1      -0.927   0.248  -1.011  0.00  0.00    +0.000 A 
ATOM     13  C   UNL     1      -2.861  -0.536   0.208  0.00  0.00    +0.000 A 
ATOM     14  C   UNL     1      -2.637   0.433   1.186  0.00  0.00    +0.000 A 
ATOM     15  C   UNL     1      -2.006  -0.628  -0.890  0.00  0.00    +0.000 A 
BRANCH  13   8
ATOM      8  N   UNL     1      -3.952  -1.421   0.328  0.00  0.00    +0.000 N 
ATOM     20  H   UNL     1      -4.580  -1.354   1.119  0.00  0.00    +0.000 HD
BRANCH   8   5
ATOM      5  O   UNL     1      -4.234  -2.376  -0.616  0.00  0.00    +0.000 OA
ATOM     21  H   UNL     1      -4.125  -3.197  -0.108  0.00  0.00    +0.000 HD
ENDBRANCH   8   5
ENDBRANCH  13   8
ENDBRANCH   1   9
TORSDOF 4
