MODEL 1
REMARK VINA RESULT:      -8.5      0.000      0.000
REMARK  Name = 99331
REMARK  2 active torsions:
REMARK  status: ('A' for Active; 'I' for Inactive)
REMARK    1  A    between atoms: N_4  and  C_7
REMARK    2  A    between atoms: C_10  and  C_17
REMARK                            x       y       z     vdW  Elec       q    Type
REMARK                         _______ _______ _______ _____ _____    ______ ____
ROOT
ATOM      2  O   UNL     1      21.461  -7.347   8.114  0.00  0.00    +0.000 OA
ATOM      3  O   UNL     1      23.970  -4.036   9.027  0.00  0.00    +0.000 OA
ATOM      4  N   UNL     1      25.854  -3.838   7.650  0.00  0.00    +0.000 N 
ATOM      5  N   UNL     1      24.369  -5.574   7.312  0.00  0.00    +0.000 N 
ATOM      6  N   UNL     1      22.337  -6.293   8.341  0.00  0.00    +0.000 NA
ATOM      8  C   UNL     1      23.269  -6.457   7.425  0.00  0.00    +0.000 A 
ATOM      9  C   UNL     1      23.081  -7.551   6.595  0.00  0.00    +0.000 A 
ATOM     10  C   UNL     1      21.915  -8.090   7.072  0.00  0.00    +0.000 A 
ATOM     13  C   UNL     1      24.654  -4.444   8.095  0.00  0.00    +0.000 C 
ATOM     17  C   UNL     1      21.104  -9.254   6.694  0.00  0.00    +0.000 C 
ATOM     18  H   UNL     1      26.315  -4.289   6.862  0.00  0.00    +0.000 HD
ATOM     19  H   UNL     1      25.021  -5.805   6.567  0.00  0.00    +0.000 HD
ENDROOT
BRANCH   4   7
ATOM      1  F   UNL     1      28.389   0.660   9.614  0.00  0.00    +0.000 F 
ATOM      7  C   UNL     1      26.492  -2.702   8.146  0.00  0.00    +0.000 A 
ATOM     11  C   UNL     1      26.441  -1.505   7.433  0.00  0.00    +0.000 A 
ATOM     12  C   UNL     1      27.185  -2.764   9.355  0.00  0.00    +0.000 A 
ATOM     14  C   UNL     1      27.081  -0.369   7.929  0.00  0.00    +0.000 A 
ATOM     15  C   UNL     1      27.826  -1.627   9.852  0.00  0.00    +0.000 A 
ATOM     16  C   UNL     1      27.774  -0.430   9.139  0.00  0.00    +0.000 A 
ENDBRANCH   4   7
TORSDOF 1
ENDMDL
MODEL 2
REMARK VINA RESULT:      -6.7      6.389      9.412
REMARK  Name = 99331
REMARK  2 active torsions:
REMARK  status: ('A' for Active; 'I' for Inactive)
REMARK    1  A    between atoms: N_4  and  C_7
REMARK    2  A    between atoms: C_10  and  C_17
REMARK                            x       y       z     vdW  Elec       q    Type
REMARK                         _______ _______ _______ _____ _____    ______ ____
ROOT
ATOM      2  O   UNL     1      33.256  -3.326  15.727  0.00  0.00    +0.000 OA
ATOM      3  O   UNL     1      30.480  -1.686  12.953  0.00  0.00    +0.000 OA
ATOM      4  N   UNL     1      30.591  -2.615  10.806  0.00  0.00    +0.000 N 
ATOM      5  N   UNL     1      32.019  -3.373  12.454  0.00  0.00    +0.000 N 
ATOM      6  N   UNL     1      32.385  -2.849  14.756  0.00  0.00    +0.000 NA
ATOM      8  C   UNL     1      32.691  -3.555  13.686  0.00  0.00    +0.000 A 
ATOM      9  C   UNL     1      33.710  -4.475  13.871  0.00  0.00    +0.000 A 
ATOM     10  C   UNL     1      34.041  -4.294  15.188  0.00  0.00    +0.000 A 
ATOM     13  C   UNL     1      30.981  -2.476  12.160  0.00  0.00    +0.000 C 
ATOM     17  C   UNL     1      35.029  -4.911  16.082  0.00  0.00    +0.000 C 
ATOM     18  H   UNL     1      31.096  -3.314  10.266  0.00  0.00    +0.000 HD
ATOM     19  H   UNL     1      32.345  -3.976  11.703  0.00  0.00    +0.000 HD
ENDROOT
BRANCH   4   7
ATOM      1  F   UNL     1      26.679   0.132   8.037  0.00  0.00    +0.000 F 
ATOM      7  C   UNL     1      29.602  -1.921  10.108  0.00  0.00    +0.000 A 
ATOM     11  C   UNL     1      28.327  -2.469   9.974  0.00  0.00    +0.000 A 
ATOM     12  C   UNL     1      29.891  -0.679   9.542  0.00  0.00    +0.000 A 
ATOM     14  C   UNL     1      27.339  -1.775   9.275  0.00  0.00    +0.000 A 
ATOM     15  C   UNL     1      28.902   0.015   8.842  0.00  0.00    +0.000 A 
ATOM     16  C   UNL     1      27.627  -0.533   8.709  0.00  0.00    +0.000 A 
ENDBRANCH   4   7
TORSDOF 1
ENDMDL
MODEL 3
REMARK VINA RESULT:      -6.6      6.178      9.669
REMARK  Name = 99331
REMARK  2 active torsions:
REMARK  status: ('A' for Active; 'I' for Inactive)
REMARK    1  A    between atoms: N_4  and  C_7
REMARK    2  A    between atoms: C_10  and  C_17
REMARK                            x       y       z     vdW  Elec       q    Type
REMARK                         _______ _______ _______ _____ _____    ______ ____
ROOT
ATOM      2  O   UNL     1      34.727  -2.651  13.201  0.00  0.00    +0.000 OA
ATOM      3  O   UNL     1      31.521  -2.048  10.473  0.00  0.00    +0.000 OA
ATOM      4  N   UNL     1      29.509  -1.382  11.472  0.00  0.00    +0.000 N 
ATOM      5  N   UNL     1      31.369  -1.761  12.788  0.00  0.00    +0.000 N 
ATOM      6  N   UNL     1      33.625  -2.431  12.384  0.00  0.00    +0.000 NA
ATOM      8  C   UNL     1      32.676  -2.078  13.227  0.00  0.00    +0.000 A 
ATOM      9  C   UNL     1      33.064  -2.046  14.557  0.00  0.00    +0.000 A 
ATOM     10  C   UNL     1      34.380  -2.419  14.493  0.00  0.00    +0.000 A 
ATOM     13  C   UNL     1      30.874  -1.762  11.475  0.00  0.00    +0.000 C 
ATOM     17  C   UNL     1      35.434  -2.606  15.499  0.00  0.00    +0.000 C 
ATOM     18  H   UNL     1      29.104  -1.173  12.382  0.00  0.00    +0.000 HD
ATOM     19  H   UNL     1      30.725  -1.504  13.532  0.00  0.00    +0.000 HD
ENDROOT
BRANCH   4   7
ATOM      1  F   UNL     1      26.083  -0.879   7.168  0.00  0.00    +0.000 F 
ATOM      7  C   UNL     1      28.643  -1.255  10.387  0.00  0.00    +0.000 A 
ATOM     11  C   UNL     1      27.975  -2.376   9.892  0.00  0.00    +0.000 A 
ATOM     12  C   UNL     1      28.446  -0.008   9.794  0.00  0.00    +0.000 A 
ATOM     14  C   UNL     1      27.110  -2.248   8.805  0.00  0.00    +0.000 A 
ATOM     15  C   UNL     1      27.581   0.119   8.706  0.00  0.00    +0.000 A 
ATOM     16  C   UNL     1      26.912  -1.001   8.212  0.00  0.00    +0.000 A 
ENDBRANCH   4   7
TORSDOF 1
ENDMDL
MODEL 4
REMARK VINA RESULT:      -6.5      5.979     10.247
REMARK  Name = 99331
REMARK  2 active torsions:
REMARK  status: ('A' for Active; 'I' for Inactive)
REMARK    1  A    between atoms: N_4  and  C_7
REMARK    2  A    between atoms: C_10  and  C_17
REMARK                            x       y       z     vdW  Elec       q    Type
REMARK                         _______ _______ _______ _____ _____    ______ ____
ROOT
ATOM      2  O   UNL     1      34.303   1.968   9.737  0.00  0.00    +0.000 OA
ATOM      3  O   UNL     1      30.918  -0.586   9.400  0.00  0.00    +0.000 OA
ATOM      4  N   UNL     1      29.073   0.384   8.331  0.00  0.00    +0.000 N 
ATOM      5  N   UNL     1      31.009   1.613   8.611  0.00  0.00    +0.000 N 
ATOM      6  N   UNL     1      33.152   1.205   9.583  0.00  0.00    +0.000 NA
ATOM      8  C   UNL     1      32.319   2.015   8.961  0.00  0.00    +0.000 A 
ATOM      9  C   UNL     1      32.831   3.272   8.686  0.00  0.00    +0.000 A 
ATOM     10  C   UNL     1      34.099   3.198   9.199  0.00  0.00    +0.000 A 
ATOM     13  C   UNL     1      30.395   0.372   8.841  0.00  0.00    +0.000 C 
ATOM     17  C   UNL     1      35.222   4.142   9.275  0.00  0.00    +0.000 C 
ATOM     18  H   UNL     1      28.774   1.251   7.891  0.00  0.00    +0.000 HD
ATOM     19  H   UNL     1      30.461   2.326   8.135  0.00  0.00    +0.000 HD
ENDROOT
BRANCH   4   7
ATOM      1  F   UNL     1      25.315  -3.664   8.402  0.00  0.00    +0.000 F 
ATOM      7  C   UNL     1      28.123  -0.637   8.350  0.00  0.00    +0.000 A 
ATOM     11  C   UNL     1      27.831  -1.297   9.543  0.00  0.00    +0.000 A 
ATOM     12  C   UNL     1      27.468  -1.000   7.173  0.00  0.00    +0.000 A 
ATOM     14  C   UNL     1      26.882  -2.319   9.560  0.00  0.00    +0.000 A 
ATOM     15  C   UNL     1      26.518  -2.023   7.191  0.00  0.00    +0.000 A 
ATOM     16  C   UNL     1      26.225  -2.682   8.385  0.00  0.00    +0.000 A 
ENDBRANCH   4   7
TORSDOF 1
ENDMDL
MODEL 5
REMARK VINA RESULT:      -5.9      7.922     11.433
REMARK  Name = 99331
REMARK  2 active torsions:
REMARK  status: ('A' for Active; 'I' for Inactive)
REMARK    1  A    between atoms: N_4  and  C_7
REMARK    2  A    between atoms: C_10  and  C_17
REMARK                            x       y       z     vdW  Elec       q    Type
REMARK                         _______ _______ _______ _____ _____    ______ ____
ROOT
ATOM      2  O   UNL     1      34.881  -2.450  16.926  0.00  0.00    +0.000 OA
ATOM      3  O   UNL     1      31.856  -3.062  14.000  0.00  0.00    +0.000 OA
ATOM      4  N   UNL     1      31.868  -1.503  12.251  0.00  0.00    +0.000 N 
ATOM      5  N   UNL     1      33.435  -1.339  13.940  0.00  0.00    +0.000 N 
ATOM      6  N   UNL     1      33.926  -2.573  15.925  0.00  0.00    +0.000 NA
ATOM      8  C   UNL     1      34.193  -1.572  15.111  0.00  0.00    +0.000 A 
ATOM      9  C   UNL     1      35.264  -0.782  15.498  0.00  0.00    +0.000 A 
ATOM     10  C   UNL     1      35.671  -1.378  16.661  0.00  0.00    +0.000 A 
ATOM     13  C   UNL     1      32.339  -2.073  13.459  0.00  0.00    +0.000 C 
ATOM     17  C   UNL     1      36.742  -1.098  17.627  0.00  0.00    +0.000 C 
ATOM     18  H   UNL     1      32.371  -0.682  11.920  0.00  0.00    +0.000 HD
ATOM     19  H   UNL     1      33.738  -0.536  13.394  0.00  0.00    +0.000 HD
ENDROOT
BRANCH   4   7
ATOM      1  F   UNL     1      27.659  -3.154   9.077  0.00  0.00    +0.000 F 
ATOM      7  C   UNL     1      30.806  -1.918  11.448  0.00  0.00    +0.000 A 
ATOM     11  C   UNL     1      29.568  -1.284  11.546  0.00  0.00    +0.000 A 
ATOM     12  C   UNL     1      30.981  -2.971  10.550  0.00  0.00    +0.000 A 
ATOM     14  C   UNL     1      28.505  -1.701  10.744  0.00  0.00    +0.000 A 
ATOM     15  C   UNL     1      29.918  -3.388   9.748  0.00  0.00    +0.000 A 
ATOM     16  C   UNL     1      28.680  -2.753   9.845  0.00  0.00    +0.000 A 
ENDBRANCH   4   7
TORSDOF 1
ENDMDL
MODEL 6
REMARK VINA RESULT:      -5.8     16.040     17.520
REMARK  Name = 99331
REMARK  2 active torsions:
REMARK  status: ('A' for Active; 'I' for Inactive)
REMARK    1  A    between atoms: N_4  and  C_7
REMARK    2  A    between atoms: C_10  and  C_17
REMARK                            x       y       z     vdW  Elec       q    Type
REMARK                         _______ _______ _______ _____ _____    ______ ____
ROOT
ATOM      2  O   UNL     1      23.448  -9.798  21.537  0.00  0.00    +0.000 OA
ATOM      3  O   UNL     1      19.541  -9.185  23.101  0.00  0.00    +0.000 OA
ATOM      4  N   UNL     1      17.825 -10.143  21.827  0.00  0.00    +0.000 N 
ATOM      5  N   UNL     1      20.018 -10.366  21.141  0.00  0.00    +0.000 N 
ATOM      6  N   UNL     1      22.138  -9.647  21.974  0.00  0.00    +0.000 NA
ATOM      8  C   UNL     1      21.429 -10.282  21.064  0.00  0.00    +0.000 A 
ATOM      9  C   UNL     1      22.173 -10.851  20.043  0.00  0.00    +0.000 A 
ATOM     10  C   UNL     1      23.456 -10.517  20.385  0.00  0.00    +0.000 A 
ATOM     13  C   UNL     1      19.173  -9.830  22.125  0.00  0.00    +0.000 C 
ATOM     17  C   UNL     1      24.769 -10.772  19.780  0.00  0.00    +0.000 C 
ATOM     18  H   UNL     1      17.671 -10.688  20.981  0.00  0.00    +0.000 HD
ATOM     19  H   UNL     1      19.584 -10.883  20.380  0.00  0.00    +0.000 HD
ENDROOT
BRANCH   4   7
ATOM      1  F   UNL     1      13.272  -8.807  24.656  0.00  0.00    +0.000 F 
ATOM      7  C   UNL     1      16.674  -9.806  22.539  0.00  0.00    +0.000 A 
ATOM     11  C   UNL     1      16.179  -8.503  22.490  0.00  0.00    +0.000 A 
ATOM     12  C   UNL     1      16.021 -10.771  23.305  0.00  0.00    +0.000 A 
ATOM     14  C   UNL     1      15.030  -8.166  23.204  0.00  0.00    +0.000 A 
ATOM     15  C   UNL     1      14.870 -10.434  24.020  0.00  0.00    +0.000 A 
ATOM     16  C   UNL     1      14.375  -9.131  23.969  0.00  0.00    +0.000 A 
ENDBRANCH   4   7
TORSDOF 1
ENDMDL
MODEL 7
REMARK VINA RESULT:      -5.7     15.817     17.388
REMARK  Name = 99331
REMARK  2 active torsions:
REMARK  status: ('A' for Active; 'I' for Inactive)
REMARK    1  A    between atoms: N_4  and  C_7
REMARK    2  A    between atoms: C_10  and  C_17
REMARK                            x       y       z     vdW  Elec       q    Type
REMARK                         _______ _______ _______ _____ _____    ______ ____
ROOT
ATOM      2  O   UNL     1      23.894   5.813  -6.387  0.00  0.00    +0.000 OA
ATOM      3  O   UNL     1      24.710   1.686  -5.760  0.00  0.00    +0.000 OA
ATOM      4  N   UNL     1      24.111   0.297  -7.548  0.00  0.00    +0.000 N 
ATOM      5  N   UNL     1      23.747   2.572  -7.697  0.00  0.00    +0.000 N 
ATOM      6  N   UNL     1      24.125   4.448  -6.268  0.00  0.00    +0.000 NA
ATOM      8  C   UNL     1      23.690   3.957  -7.411  0.00  0.00    +0.000 A 
ATOM      9  C   UNL     1      23.181   4.898  -8.290  0.00  0.00    +0.000 A 
ATOM     10  C   UNL     1      23.331   6.069  -7.595  0.00  0.00    +0.000 A 
ATOM     13  C   UNL     1      24.238   1.541  -6.883  0.00  0.00    +0.000 C 
ATOM     17  C   UNL     1      23.017   7.473  -7.889  0.00  0.00    +0.000 C 
ATOM     18  H   UNL     1      23.701   0.330  -8.479  0.00  0.00    +0.000 HD
ATOM     19  H   UNL     1      23.381   2.315  -8.610  0.00  0.00    +0.000 HD
ENDROOT
BRANCH   4   7
ATOM      1  F   UNL     1      25.552  -4.734  -5.778  0.00  0.00    +0.000 F 
ATOM      7  C   UNL     1      24.475  -0.973  -7.099  0.00  0.00    +0.000 A 
ATOM     11  C   UNL     1      25.784  -1.219  -6.688  0.00  0.00    +0.000 A 
ATOM     12  C   UNL     1      23.529  -1.997  -7.066  0.00  0.00    +0.000 A 
ATOM     14  C   UNL     1      26.148  -2.489  -6.241  0.00  0.00    +0.000 A 
ATOM     15  C   UNL     1      23.893  -3.268  -6.619  0.00  0.00    +0.000 A 
ATOM     16  C   UNL     1      25.202  -3.514  -6.206  0.00  0.00    +0.000 A 
ENDBRANCH   4   7
TORSDOF 1
ENDMDL
MODEL 8
REMARK VINA RESULT:      -5.6      7.156      9.646
REMARK  Name = 99331
REMARK  2 active torsions:
REMARK  status: ('A' for Active; 'I' for Inactive)
REMARK    1  A    between atoms: N_4  and  C_7
REMARK    2  A    between atoms: C_10  and  C_17
REMARK                            x       y       z     vdW  Elec       q    Type
REMARK                         _______ _______ _______ _____ _____    ______ ____
ROOT
ATOM      2  O   UNL     1      27.979  -0.070   9.058  0.00  0.00    +0.000 OA
ATOM      3  O   UNL     1      31.435   2.351   8.519  0.00  0.00    +0.000 OA
ATOM      4  N   UNL     1      33.454   1.293   9.060  0.00  0.00    +0.000 N 
ATOM      5  N   UNL     1      31.465   0.143   9.287  0.00  0.00    +0.000 N 
ATOM      6  N   UNL     1      29.160   0.648   8.912  0.00  0.00    +0.000 NA
ATOM      8  C   UNL     1      30.093  -0.204   9.288  0.00  0.00    +0.000 A 
ATOM      9  C   UNL     1      29.620  -1.446   9.677  0.00  0.00    +0.000 A 
ATOM     10  C   UNL     1      28.266  -1.316   9.515  0.00  0.00    +0.000 A 
ATOM     13  C   UNL     1      32.047   1.364   8.914  0.00  0.00    +0.000 C 
ATOM     17  C   UNL     1      27.124  -2.215   9.728  0.00  0.00    +0.000 C 
ATOM     18  H   UNL     1      33.822   0.407   9.398  0.00  0.00    +0.000 HD
ATOM     19  H   UNL     1      32.087  -0.599   9.598  0.00  0.00    +0.000 HD
ENDROOT
BRANCH   4   7
ATOM      1  F   UNL     1      37.225   5.197   8.030  0.00  0.00    +0.000 F 
ATOM      7  C   UNL     1      34.407   2.278   8.801  0.00  0.00    +0.000 A 
ATOM     11  C   UNL     1      34.628   3.297   9.728  0.00  0.00    +0.000 A 
ATOM     12  C   UNL     1      35.138   2.245   7.614  0.00  0.00    +0.000 A 
ATOM     14  C   UNL     1      35.580   4.282   9.467  0.00  0.00    +0.000 A 
ATOM     15  C   UNL     1      36.091   3.231   7.353  0.00  0.00    +0.000 A 
ATOM     16  C   UNL     1      36.312   4.250   8.280  0.00  0.00    +0.000 A 
ENDBRANCH   4   7
TORSDOF 1
ENDMDL
MODEL 9
REMARK VINA RESULT:      -5.6      7.499     11.650
REMARK  Name = 99331
REMARK  2 active torsions:
REMARK  status: ('A' for Active; 'I' for Inactive)
REMARK    1  A    between atoms: N_4  and  C_7
REMARK    2  A    between atoms: C_10  and  C_17
REMARK                            x       y       z     vdW  Elec       q    Type
REMARK                         _______ _______ _______ _____ _____    ______ ____
ROOT
ATOM      2  O   UNL     1      36.365   2.548   7.406  0.00  0.00    +0.000 OA
ATOM      3  O   UNL     1      33.054   0.024   8.272  0.00  0.00    +0.000 OA
ATOM      4  N   UNL     1      31.109   1.160   8.916  0.00  0.00    +0.000 N 
ATOM      5  N   UNL     1      33.017   2.357   8.404  0.00  0.00    +0.000 N 
ATOM      6  N   UNL     1      35.233   1.801   7.708  0.00  0.00    +0.000 NA
ATOM      8  C   UNL     1      34.333   2.710   8.026  0.00  0.00    +0.000 A 
ATOM      9  C   UNL     1      34.784   4.019   7.958  0.00  0.00    +0.000 A 
ATOM     10  C   UNL     1      36.085   3.868   7.559  0.00  0.00    +0.000 A 
ATOM     13  C   UNL     1      32.462   1.072   8.505  0.00  0.00    +0.000 C 
ATOM     17  C   UNL     1      37.179   4.807   7.279  0.00  0.00    +0.000 C 
ATOM     18  H   UNL     1      30.752   2.101   9.071  0.00  0.00    +0.000 HD
ATOM     19  H   UNL     1      32.415   3.147   8.626  0.00  0.00    +0.000 HD
ENDROOT
BRANCH   4   7
ATOM      1  F   UNL     1      27.496  -2.927   9.783  0.00  0.00    +0.000 F 
ATOM      7  C   UNL     1      30.197   0.129   9.137  0.00  0.00    +0.000 A 
ATOM     11  C   UNL     1      30.596  -1.023   9.813  0.00  0.00    +0.000 A 
ATOM     12  C   UNL     1      28.885   0.249   8.678  0.00  0.00    +0.000 A 
ATOM     14  C   UNL     1      29.684  -2.055  10.032  0.00  0.00    +0.000 A 
ATOM     15  C   UNL     1      27.972  -0.784   8.897  0.00  0.00    +0.000 A 
ATOM     16  C   UNL     1      28.371  -1.936   9.574  0.00  0.00    +0.000 A 
ENDBRANCH   4   7
TORSDOF 1
ENDMDL
MODEL 10
REMARK VINA RESULT:      -5.5     15.005     15.948
REMARK  Name = 99331
REMARK  2 active torsions:
REMARK  status: ('A' for Active; 'I' for Inactive)
REMARK    1  A    between atoms: N_4  and  C_7
REMARK    2  A    between atoms: C_10  and  C_17
REMARK                            x       y       z     vdW  Elec       q    Type
REMARK                         _______ _______ _______ _____ _____    ______ ____
ROOT
ATOM      2  O   UNL     1      16.273  -7.779  22.163  0.00  0.00    +0.000 OA
ATOM      3  O   UNL     1      20.415  -8.664  21.783  0.00  0.00    +0.000 OA
ATOM      4  N   UNL     1      20.892 -10.921  21.373  0.00  0.00    +0.000 N 
ATOM      5  N   UNL     1      18.698 -10.241  21.611  0.00  0.00    +0.000 N 
ATOM      6  N   UNL     1      17.602  -8.159  22.025  0.00  0.00    +0.000 NA
ATOM      8  C   UNL     1      17.536  -9.457  21.808  0.00  0.00    +0.000 A 
ATOM      9  C   UNL     1      16.252  -9.977  21.791  0.00  0.00    +0.000 A 
ATOM     10  C   UNL     1      15.478  -8.872  22.022  0.00  0.00    +0.000 A 
ATOM     13  C   UNL     1      20.036  -9.817  21.608  0.00  0.00    +0.000 C 
ATOM     17  C   UNL     1      14.031  -8.650  22.141  0.00  0.00    +0.000 C 
ATOM     18  H   UNL     1      20.433 -11.820  21.245  0.00  0.00    +0.000 HD
ATOM     19  H   UNL     1      18.518 -11.229  21.453  0.00  0.00    +0.000 HD
ENDROOT
BRANCH   4   7
ATOM      1  F   UNL     1      26.406 -10.995  21.051  0.00  0.00    +0.000 F 
ATOM      7  C   UNL     1      22.284 -10.942  21.292  0.00  0.00    +0.000 A 
ATOM     11  C   UNL     1      23.048 -11.128  22.444  0.00  0.00    +0.000 A 
ATOM     12  C   UNL     1      22.913 -10.773  20.059  0.00  0.00    +0.000 A 
ATOM     14  C   UNL     1      24.440 -11.146  22.362  0.00  0.00    +0.000 A 
ATOM     15  C   UNL     1      24.306 -10.792  19.977  0.00  0.00    +0.000 A 
ATOM     16  C   UNL     1      25.070 -10.978  21.129  0.00  0.00    +0.000 A 
ENDBRANCH   4   7
TORSDOF 1
ENDMDL
