MODEL 1
REMARK VINA RESULT:      -7.7      0.000      0.000
REMARK  Name = 125483
REMARK  4 active torsions:
REMARK  status: ('A' for Active; 'I' for Inactive)
REMARK    1  A    between atoms: S_1  and  N_6
REMARK    2  A    between atoms: S_1  and  C_9
REMARK    3  A    between atoms: N_8  and  C_17
REMARK    4  A    between atoms: C_16  and  C_18
REMARK                            x       y       z     vdW  Elec       q    Type
REMARK                         _______ _______ _______ _____ _____    ______ ____
ROOT
ATOM      1  S   UNL     1      24.592  -5.411   8.018  0.00  0.00    +0.000 S 
ATOM      3  O   UNL     1      25.400  -6.490   7.464  0.00  0.00    +0.000 OA
ATOM      4  O   UNL     1      23.999  -5.566   9.341  0.00  0.00    +0.000 OA
ENDROOT
BRANCH   1   6
ATOM      2  O   UNL     1      21.066  -2.631   8.117  0.00  0.00    +0.000 OA
ATOM      6  N   UNL     1      23.369  -4.999   6.900  0.00  0.00    +0.000 N 
ATOM      7  N   UNL     1      22.196  -3.424   8.290  0.00  0.00    +0.000 NA
ATOM     10  C   UNL     1      22.325  -4.074   7.139  0.00  0.00    +0.000 A 
ATOM     13  C   UNL     1      21.333  -3.751   6.208  0.00  0.00    +0.000 A 
ATOM     16  C   UNL     1      20.562  -2.835   6.874  0.00  0.00    +0.000 A 
ATOM     18  C   UNL     1      19.359  -2.072   6.520  0.00  0.00    +0.000 C 
ATOM     19  H   UNL     1      23.330  -5.520   6.016  0.00  0.00    +0.000 HD
ENDBRANCH   1   6
BRANCH   1   9
ATOM      9  C   UNL     1      25.557  -3.955   8.024  0.00  0.00    +0.000 A 
ATOM     11  C   UNL     1      25.959  -3.381   6.817  0.00  0.00    +0.000 A 
ATOM     12  C   UNL     1      25.926  -3.367   9.234  0.00  0.00    +0.000 A 
ATOM     14  C   UNL     1      26.730  -2.218   6.822  0.00  0.00    +0.000 A 
ATOM     15  C   UNL     1      26.696  -2.205   9.238  0.00  0.00    +0.000 A 
ATOM     17  C   UNL     1      27.098  -1.630   8.032  0.00  0.00    +0.000 A 
BRANCH  17   8
ATOM      5  O   UNL     1      27.657   0.241   9.019  0.00  0.00    +0.000 OA
ATOM      8  N   UNL     1      27.856  -0.486   8.036  0.00  0.00    +0.000 NA
ENDBRANCH  17   8
ENDBRANCH   1   9
TORSDOF 3
ENDMDL
MODEL 2
REMARK VINA RESULT:      -7.3      3.664      7.911
REMARK  Name = 125483
REMARK  4 active torsions:
REMARK  status: ('A' for Active; 'I' for Inactive)
REMARK    1  A    between atoms: S_1  and  N_6
REMARK    2  A    between atoms: S_1  and  C_9
REMARK    3  A    between atoms: N_8  and  C_17
REMARK    4  A    between atoms: C_16  and  C_18
REMARK                            x       y       z     vdW  Elec       q    Type
REMARK                         _______ _______ _______ _____ _____    ______ ____
ROOT
ATOM      1  S   UNL     1      28.723   0.240   9.459  0.00  0.00    +0.000 S 
ATOM      3  O   UNL     1      29.884   0.449   8.602  0.00  0.00    +0.000 OA
ATOM      4  O   UNL     1      27.860   1.369   9.785  0.00  0.00    +0.000 OA
ENDROOT
BRANCH   1   6
ATOM      2  O   UNL     1      31.777  -2.900  10.451  0.00  0.00    +0.000 OA
ATOM      6  N   UNL     1      29.227  -0.516  10.905  0.00  0.00    +0.000 N 
ATOM      7  N   UNL     1      30.898  -1.953   9.938  0.00  0.00    +0.000 NA
ATOM     10  C   UNL     1      30.233  -1.507  10.999  0.00  0.00    +0.000 A 
ATOM     13  C   UNL     1      30.630  -2.113  12.194  0.00  0.00    +0.000 A 
ATOM     16  C   UNL     1      31.608  -2.985  11.796  0.00  0.00    +0.000 A 
ATOM     18  C   UNL     1      32.464  -3.945  12.505  0.00  0.00    +0.000 C 
ATOM     19  H   UNL     1      28.706  -0.306  11.765  0.00  0.00    +0.000 HD
ENDBRANCH   1   6
BRANCH   1   9
ATOM      9  C   UNL     1      27.736  -1.010   8.744  0.00  0.00    +0.000 A 
ATOM     11  C   UNL     1      27.151  -1.985   9.553  0.00  0.00    +0.000 A 
ATOM     12  C   UNL     1      27.532  -1.034   7.364  0.00  0.00    +0.000 A 
ATOM     14  C   UNL     1      26.363  -2.984   8.982  0.00  0.00    +0.000 A 
ATOM     15  C   UNL     1      26.743  -2.032   6.794  0.00  0.00    +0.000 A 
ATOM     17  C   UNL     1      26.158  -3.008   7.603  0.00  0.00    +0.000 A 
BRANCH  17   8
ATOM      5  O   UNL     1      25.488  -5.091   7.599  0.00  0.00    +0.000 OA
ATOM      8  N   UNL     1      25.381  -3.990   7.041  0.00  0.00    +0.000 NA
ENDBRANCH  17   8
ENDBRANCH   1   9
TORSDOF 3
ENDMDL
MODEL 3
REMARK VINA RESULT:      -6.8      1.485      1.992
REMARK  Name = 125483
REMARK  4 active torsions:
REMARK  status: ('A' for Active; 'I' for Inactive)
REMARK    1  A    between atoms: S_1  and  N_6
REMARK    2  A    between atoms: S_1  and  C_9
REMARK    3  A    between atoms: N_8  and  C_17
REMARK    4  A    between atoms: C_16  and  C_18
REMARK                            x       y       z     vdW  Elec       q    Type
REMARK                         _______ _______ _______ _____ _____    ______ ____
ROOT
ATOM      1  S   UNL     1      22.945  -6.209   7.457  0.00  0.00    +0.000 S 
ATOM      3  O   UNL     1      23.626  -7.215   6.651  0.00  0.00    +0.000 OA
ATOM      4  O   UNL     1      22.281  -6.610   8.691  0.00  0.00    +0.000 OA
ENDROOT
BRANCH   1   6
ATOM      2  O   UNL     1      20.773  -2.296   7.833  0.00  0.00    +0.000 OA
ATOM      6  N   UNL     1      21.835  -5.364   6.472  0.00  0.00    +0.000 N 
ATOM      7  N   UNL     1      21.532  -3.459   7.911  0.00  0.00    +0.000 NA
ATOM     10  C   UNL     1      21.256  -4.111   6.786  0.00  0.00    +0.000 A 
ATOM     13  C   UNL     1      20.350  -3.436   5.964  0.00  0.00    +0.000 A 
ATOM     16  C   UNL     1      20.074  -2.295   6.670  0.00  0.00    +0.000 A 
ATOM     18  C   UNL     1      19.213  -1.131   6.423  0.00  0.00    +0.000 C 
ATOM     19  H   UNL     1      21.488  -5.832   5.626  0.00  0.00    +0.000 HD
ENDBRANCH   1   6
BRANCH   1   9
ATOM      9  C   UNL     1      24.091  -4.949   7.841  0.00  0.00    +0.000 A 
ATOM     11  C   UNL     1      24.080  -4.359   9.106  0.00  0.00    +0.000 A 
ATOM     12  C   UNL     1      25.016  -4.532   6.885  0.00  0.00    +0.000 A 
ATOM     14  C   UNL     1      24.995  -3.352   9.412  0.00  0.00    +0.000 A 
ATOM     15  C   UNL     1      25.932  -3.526   7.192  0.00  0.00    +0.000 A 
ATOM     17  C   UNL     1      25.921  -2.936   8.457  0.00  0.00    +0.000 A 
BRANCH  17   8
ATOM      5  O   UNL     1      27.499  -2.178   9.770  0.00  0.00    +0.000 OA
ATOM      8  N   UNL     1      26.822  -1.945   8.759  0.00  0.00    +0.000 NA
ENDBRANCH  17   8
ENDBRANCH   1   9
TORSDOF 3
ENDMDL
MODEL 4
REMARK VINA RESULT:      -6.8      1.877      5.788
REMARK  Name = 125483
REMARK  4 active torsions:
REMARK  status: ('A' for Active; 'I' for Inactive)
REMARK    1  A    between atoms: S_1  and  N_6
REMARK    2  A    between atoms: S_1  and  C_9
REMARK    3  A    between atoms: N_8  and  C_17
REMARK    4  A    between atoms: C_16  and  C_18
REMARK                            x       y       z     vdW  Elec       q    Type
REMARK                         _______ _______ _______ _____ _____    ______ ____
ROOT
ATOM      1  S   UNL     1      24.043  -5.504   8.184  0.00  0.00    +0.000 S 
ATOM      3  O   UNL     1      23.525  -6.482   9.132  0.00  0.00    +0.000 OA
ATOM      4  O   UNL     1      24.805  -5.960   7.028  0.00  0.00    +0.000 OA
ENDROOT
BRANCH   1   6
ATOM      2  O   UNL     1      26.846  -2.220   6.949  0.00  0.00    +0.000 OA
ATOM      6  N   UNL     1      24.956  -4.335   9.032  0.00  0.00    +0.000 N 
ATOM      7  N   UNL     1      25.959  -3.277   7.118  0.00  0.00    +0.000 NA
ATOM     10  C   UNL     1      25.797  -3.367   8.434  0.00  0.00    +0.000 A 
ATOM     13  C   UNL     1      26.535  -2.419   9.148  0.00  0.00    +0.000 A 
ATOM     16  C   UNL     1      27.181  -1.717   8.165  0.00  0.00    +0.000 A 
ATOM     18  C   UNL     1      28.118  -0.586   8.172  0.00  0.00    +0.000 C 
ATOM     19  H   UNL     1      24.969  -4.386  10.058  0.00  0.00    +0.000 HD
ENDBRANCH   1   6
BRANCH   1   9
ATOM      9  C   UNL     1      22.705  -4.541   7.607  0.00  0.00    +0.000 A 
ATOM     11  C   UNL     1      22.439  -3.300   8.186  0.00  0.00    +0.000 A 
ATOM     12  C   UNL     1      21.903  -5.014   6.569  0.00  0.00    +0.000 A 
ATOM     14  C   UNL     1      21.369  -2.531   7.725  0.00  0.00    +0.000 A 
ATOM     15  C   UNL     1      20.835  -4.245   6.108  0.00  0.00    +0.000 A 
ATOM     17  C   UNL     1      20.568  -3.003   6.686  0.00  0.00    +0.000 A 
BRANCH  17   8
ATOM      5  O   UNL     1      18.552  -2.917   5.838  0.00  0.00    +0.000 OA
ATOM      8  N   UNL     1      19.516  -2.246   6.232  0.00  0.00    +0.000 NA
ENDBRANCH  17   8
ENDBRANCH   1   9
TORSDOF 3
ENDMDL
MODEL 5
REMARK VINA RESULT:      -6.7      3.075      6.987
REMARK  Name = 125483
REMARK  4 active torsions:
REMARK  status: ('A' for Active; 'I' for Inactive)
REMARK    1  A    between atoms: S_1  and  N_6
REMARK    2  A    between atoms: S_1  and  C_9
REMARK    3  A    between atoms: N_8  and  C_17
REMARK    4  A    between atoms: C_16  and  C_18
REMARK                            x       y       z     vdW  Elec       q    Type
REMARK                         _______ _______ _______ _____ _____    ______ ____
ROOT
ATOM      1  S   UNL     1      26.433  -2.673   8.005  0.00  0.00    +0.000 S 
ATOM      3  O   UNL     1      26.734  -2.943   6.604  0.00  0.00    +0.000 OA
ATOM      4  O   UNL     1      26.067  -1.322   8.411  0.00  0.00    +0.000 OA
ENDROOT
BRANCH   1   6
ATOM      2  O   UNL     1      30.075  -0.703   9.744  0.00  0.00    +0.000 OA
ATOM      6  N   UNL     1      27.734  -3.215   8.969  0.00  0.00    +0.000 N 
ATOM      7  N   UNL     1      28.902  -1.116   9.122  0.00  0.00    +0.000 NA
ATOM     10  C   UNL     1      28.807  -2.408   9.419  0.00  0.00    +0.000 A 
ATOM     13  C   UNL     1      29.862  -2.873  10.209  0.00  0.00    +0.000 A 
ATOM     16  C   UNL     1      30.637  -1.758  10.387  0.00  0.00    +0.000 A 
ATOM     18  C   UNL     1      31.892  -1.497  11.102  0.00  0.00    +0.000 C 
ATOM     19  H   UNL     1      27.798  -4.220   9.170  0.00  0.00    +0.000 HD
ENDBRANCH   1   6
BRANCH   1   9
ATOM      9  C   UNL     1      25.159  -3.756   8.508  0.00  0.00    +0.000 A 
ATOM     11  C   UNL     1      25.247  -5.118   8.219  0.00  0.00    +0.000 A 
ATOM     12  C   UNL     1      24.053  -3.259   9.198  0.00  0.00    +0.000 A 
ATOM     14  C   UNL     1      24.229  -5.983   8.621  0.00  0.00    +0.000 A 
ATOM     15  C   UNL     1      23.036  -4.124   9.600  0.00  0.00    +0.000 A 
ATOM     17  C   UNL     1      23.124  -5.486   9.311  0.00  0.00    +0.000 A 
BRANCH  17   8
ATOM      5  O   UNL     1      21.703  -6.117  10.852  0.00  0.00    +0.000 OA
ATOM      8  N   UNL     1      22.123  -6.337   9.708  0.00  0.00    +0.000 NA
ENDBRANCH  17   8
ENDBRANCH   1   9
TORSDOF 3
ENDMDL
MODEL 6
REMARK VINA RESULT:      -6.2      5.514      7.793
REMARK  Name = 125483
REMARK  4 active torsions:
REMARK  status: ('A' for Active; 'I' for Inactive)
REMARK    1  A    between atoms: S_1  and  N_6
REMARK    2  A    between atoms: S_1  and  C_9
REMARK    3  A    between atoms: N_8  and  C_17
REMARK    4  A    between atoms: C_16  and  C_18
REMARK                            x       y       z     vdW  Elec       q    Type
REMARK                         _______ _______ _______ _____ _____    ______ ____
ROOT
ATOM      1  S   UNL     1      30.932  -1.967  11.527  0.00  0.00    +0.000 S 
ATOM      3  O   UNL     1      30.904  -1.813  12.976  0.00  0.00    +0.000 OA
ATOM      4  O   UNL     1      31.592  -0.955  10.711  0.00  0.00    +0.000 OA
ENDROOT
BRANCH   1   6
ATOM      2  O   UNL     1      28.557  -0.275   8.111  0.00  0.00    +0.000 OA
ATOM      6  N   UNL     1      29.337  -2.191  10.959  0.00  0.00    +0.000 N 
ATOM      7  N   UNL     1      29.454  -0.673   9.096  0.00  0.00    +0.000 NA
ATOM     10  C   UNL     1      28.773  -1.542   9.834  0.00  0.00    +0.000 A 
ATOM     13  C   UNL     1      27.464  -1.741   9.387  0.00  0.00    +0.000 A 
ATOM     16  C   UNL     1      27.376  -0.918   8.296  0.00  0.00    +0.000 A 
ATOM     18  C   UNL     1      26.306  -0.613   7.337  0.00  0.00    +0.000 C 
ATOM     19  H   UNL     1      28.703  -2.773  11.520  0.00  0.00    +0.000 HD
ENDBRANCH   1   6
BRANCH   1   9
ATOM      9  C   UNL     1      31.648  -3.515  11.156  0.00  0.00    +0.000 A 
ATOM     11  C   UNL     1      31.869  -3.882   9.827  0.00  0.00    +0.000 A 
ATOM     12  C   UNL     1      31.999  -4.387  12.187  0.00  0.00    +0.000 A 
ATOM     14  C   UNL     1      32.440  -5.119   9.531  0.00  0.00    +0.000 A 
ATOM     15  C   UNL     1      32.571  -5.623  11.891  0.00  0.00    +0.000 A 
ATOM     17  C   UNL     1      32.792  -5.990  10.562  0.00  0.00    +0.000 A 
BRANCH  17   8
ATOM      5  O   UNL     1      33.853  -7.268   9.138  0.00  0.00    +0.000 OA
ATOM      8  N   UNL     1      33.355  -7.207  10.271  0.00  0.00    +0.000 NA
ENDBRANCH  17   8
ENDBRANCH   1   9
TORSDOF 3
ENDMDL
MODEL 7
REMARK VINA RESULT:      -6.2      7.308     10.872
REMARK  Name = 125483
REMARK  4 active torsions:
REMARK  status: ('A' for Active; 'I' for Inactive)
REMARK    1  A    between atoms: S_1  and  N_6
REMARK    2  A    between atoms: S_1  and  C_9
REMARK    3  A    between atoms: N_8  and  C_17
REMARK    4  A    between atoms: C_16  and  C_18
REMARK                            x       y       z     vdW  Elec       q    Type
REMARK                         _______ _______ _______ _____ _____    ______ ____
ROOT
ATOM      1  S   UNL     1      32.206  -2.666  13.023  0.00  0.00    +0.000 S 
ATOM      3  O   UNL     1      31.644  -3.341  14.186  0.00  0.00    +0.000 OA
ATOM      4  O   UNL     1      33.393  -3.216  12.379  0.00  0.00    +0.000 OA
ENDROOT
BRANCH   1   6
ATOM      2  O   UNL     1      34.686  -0.563  16.122  0.00  0.00    +0.000 OA
ATOM      6  N   UNL     1      32.488  -1.027  13.412  0.00  0.00    +0.000 N 
ATOM      7  N   UNL     1      33.994  -1.398  15.251  0.00  0.00    +0.000 NA
ATOM     10  C   UNL     1      33.328  -0.569  14.454  0.00  0.00    +0.000 A 
ATOM     13  C   UNL     1      33.544   0.779  14.754  0.00  0.00    +0.000 A 
ATOM     16  C   UNL     1      34.410   0.730  15.815  0.00  0.00    +0.000 A 
ATOM     18  C   UNL     1      35.062   1.753  16.642  0.00  0.00    +0.000 C 
ATOM     19  H   UNL     1      31.943  -0.314  12.912  0.00  0.00    +0.000 HD
ENDBRANCH   1   6
BRANCH   1   9
ATOM      9  C   UNL     1      30.952  -2.522  11.817  0.00  0.00    +0.000 A 
ATOM     11  C   UNL     1      29.934  -1.581  11.978  0.00  0.00    +0.000 A 
ATOM     12  C   UNL     1      30.967  -3.348  10.693  0.00  0.00    +0.000 A 
ATOM     14  C   UNL     1      28.932  -1.467  11.015  0.00  0.00    +0.000 A 
ATOM     15  C   UNL     1      29.965  -3.232   9.729  0.00  0.00    +0.000 A 
ATOM     17  C   UNL     1      28.947  -2.291   9.891  0.00  0.00    +0.000 A 
BRANCH  17   8
ATOM      5  O   UNL     1      27.029  -2.979   9.093  0.00  0.00    +0.000 OA
ATOM      8  N   UNL     1      27.961  -2.178   8.942  0.00  0.00    +0.000 NA
ENDBRANCH  17   8
ENDBRANCH   1   9
TORSDOF 3
ENDMDL
MODEL 8
REMARK VINA RESULT:      -6.1      5.654      9.065
REMARK  Name = 125483
REMARK  4 active torsions:
REMARK  status: ('A' for Active; 'I' for Inactive)
REMARK    1  A    between atoms: S_1  and  N_6
REMARK    2  A    between atoms: S_1  and  C_9
REMARK    3  A    between atoms: N_8  and  C_17
REMARK    4  A    between atoms: C_16  and  C_18
REMARK                            x       y       z     vdW  Elec       q    Type
REMARK                         _______ _______ _______ _____ _____    ______ ____
ROOT
ATOM      1  S   UNL     1      30.971  -1.846  11.327  0.00  0.00    +0.000 S 
ATOM      3  O   UNL     1      32.140  -1.082  10.910  0.00  0.00    +0.000 OA
ATOM      4  O   UNL     1      30.476  -1.711  12.692  0.00  0.00    +0.000 OA
ENDROOT
BRANCH   1   6
ATOM      2  O   UNL     1      33.850  -4.938  12.851  0.00  0.00    +0.000 OA
ATOM      6  N   UNL     1      31.233  -3.499  10.987  0.00  0.00    +0.000 N 
ATOM      7  N   UNL     1      33.058  -3.844  12.517  0.00  0.00    +0.000 NA
ATOM     10  C   UNL     1      32.220  -4.310  11.597  0.00  0.00    +0.000 A 
ATOM     13  C   UNL     1      32.417  -5.662  11.303  0.00  0.00    +0.000 A 
ATOM     16  C   UNL     1      33.458  -6.013  12.122  0.00  0.00    +0.000 A 
ATOM     18  C   UNL     1      34.192  -7.264  12.350  0.00  0.00    +0.000 C 
ATOM     19  H   UNL     1      30.697  -3.924  10.221  0.00  0.00    +0.000 HD
ENDBRANCH   1   6
BRANCH   1   9
ATOM      9  C   UNL     1      29.660  -1.475  10.235  0.00  0.00    +0.000 A 
ATOM     11  C   UNL     1      28.620  -2.390  10.058  0.00  0.00    +0.000 A 
ATOM     12  C   UNL     1      29.651  -0.266   9.540  0.00  0.00    +0.000 A 
ATOM     14  C   UNL     1      27.574  -2.093   9.184  0.00  0.00    +0.000 A 
ATOM     15  C   UNL     1      28.604   0.030   8.668  0.00  0.00    +0.000 A 
ATOM     17  C   UNL     1      27.565  -0.885   8.490  0.00  0.00    +0.000 A 
BRANCH  17   8
ATOM      5  O   UNL     1      26.709  -1.014   6.480  0.00  0.00    +0.000 OA
ATOM      8  N   UNL     1      26.534  -0.593   7.632  0.00  0.00    +0.000 NA
ENDBRANCH  17   8
ENDBRANCH   1   9
TORSDOF 3
ENDMDL
MODEL 9
REMARK VINA RESULT:      -5.9     11.075     12.777
REMARK  Name = 125483
REMARK  4 active torsions:
REMARK  status: ('A' for Active; 'I' for Inactive)
REMARK    1  A    between atoms: S_1  and  N_6
REMARK    2  A    between atoms: S_1  and  C_9
REMARK    3  A    between atoms: N_8  and  C_17
REMARK    4  A    between atoms: C_16  and  C_18
REMARK                            x       y       z     vdW  Elec       q    Type
REMARK                         _______ _______ _______ _____ _____    ______ ____
ROOT
ATOM      1  S   UNL     1      30.946 -10.666   2.317  0.00  0.00    +0.000 S 
ATOM      3  O   UNL     1      32.275 -11.047   1.856  0.00  0.00    +0.000 OA
ATOM      4  O   UNL     1      30.799  -9.989   3.600  0.00  0.00    +0.000 OA
ENDROOT
BRANCH   1   6
ATOM      2  O   UNL     1      31.554 -15.028   3.195  0.00  0.00    +0.000 OA
ATOM      6  N   UNL     1      29.931 -12.040   2.289  0.00  0.00    +0.000 N 
ATOM      7  N   UNL     1      31.577 -13.656   2.973  0.00  0.00    +0.000 NA
ATOM     10  C   UNL     1      30.334 -13.358   2.610  0.00  0.00    +0.000 A 
ATOM     13  C   UNL     1      29.485 -14.468   2.581  0.00  0.00    +0.000 A 
ATOM     16  C   UNL     1      30.304 -15.500   2.959  0.00  0.00    +0.000 A 
ATOM     18  C   UNL     1      30.099 -16.941   3.147  0.00  0.00    +0.000 C 
ATOM     19  H   UNL     1      28.975 -11.925   1.930  0.00  0.00    +0.000 HD
ENDBRANCH   1   6
BRANCH   1   9
ATOM      9  C   UNL     1      30.207  -9.669   1.089  0.00  0.00    +0.000 A 
ATOM     11  C   UNL     1      30.923  -8.612   0.525  0.00  0.00    +0.000 A 
ATOM     12  C   UNL     1      28.901  -9.927   0.673  0.00  0.00    +0.000 A 
ATOM     14  C   UNL     1      30.332  -7.815  -0.456  0.00  0.00    +0.000 A 
ATOM     15  C   UNL     1      28.311  -9.131  -0.308  0.00  0.00    +0.000 A 
ATOM     17  C   UNL     1      29.027  -8.075  -0.872  0.00  0.00    +0.000 A 
BRANCH  17   8
ATOM      5  O   UNL     1      27.993  -7.932  -2.796  0.00  0.00    +0.000 OA
ATOM      8  N   UNL     1      28.446  -7.291  -1.838  0.00  0.00    +0.000 NA
ENDBRANCH  17   8
ENDBRANCH   1   9
TORSDOF 3
ENDMDL
MODEL 10
REMARK VINA RESULT:      -5.8      5.894      9.761
REMARK  Name = 125483
REMARK  4 active torsions:
REMARK  status: ('A' for Active; 'I' for Inactive)
REMARK    1  A    between atoms: S_1  and  N_6
REMARK    2  A    between atoms: S_1  and  C_9
REMARK    3  A    between atoms: N_8  and  C_17
REMARK    4  A    between atoms: C_16  and  C_18
REMARK                            x       y       z     vdW  Elec       q    Type
REMARK                         _______ _______ _______ _____ _____    ______ ____
ROOT
ATOM      1  S   UNL     1      30.800  -2.082  11.392  0.00  0.00    +0.000 S 
ATOM      3  O   UNL     1      30.408  -1.654  12.729  0.00  0.00    +0.000 OA
ATOM      4  O   UNL     1      31.115  -3.484  11.151  0.00  0.00    +0.000 OA
ENDROOT
BRANCH   1   6
ATOM      2  O   UNL     1      34.990  -1.384  12.851  0.00  0.00    +0.000 OA
ATOM      6  N   UNL     1      32.101  -1.115  10.856  0.00  0.00    +0.000 N 
ATOM      7  N   UNL     1      33.674  -1.736  12.568  0.00  0.00    +0.000 NA
ATOM     10  C   UNL     1      33.371  -1.040  11.478  0.00  0.00    +0.000 A 
ATOM     13  C   UNL     1      34.423  -0.241  11.021  0.00  0.00    +0.000 A 
ATOM     16  C   UNL     1      35.424  -0.493  11.922  0.00  0.00    +0.000 A 
ATOM     18  C   UNL     1      36.803  -0.012  12.070  0.00  0.00    +0.000 C 
ATOM     19  H   UNL     1      31.932  -0.469  10.075  0.00  0.00    +0.000 HD
ENDBRANCH   1   6
BRANCH   1   9
ATOM      9  C   UNL     1      29.541  -1.610  10.277  0.00  0.00    +0.000 A 
ATOM     11  C   UNL     1      28.417  -2.420  10.112  0.00  0.00    +0.000 A 
ATOM     12  C   UNL     1      29.660  -0.425   9.551  0.00  0.00    +0.000 A 
ATOM     14  C   UNL     1      27.412  -2.043   9.220  0.00  0.00    +0.000 A 
ATOM     15  C   UNL     1      28.655  -0.048   8.662  0.00  0.00    +0.000 A 
ATOM     17  C   UNL     1      27.530  -0.858   8.496  0.00  0.00    +0.000 A 
BRANCH  17   8
ATOM      5  O   UNL     1      26.681  -0.953   6.481  0.00  0.00    +0.000 OA
ATOM      8  N   UNL     1      26.541  -0.487   7.620  0.00  0.00    +0.000 NA
ENDBRANCH  17   8
ENDBRANCH   1   9
TORSDOF 3
ENDMDL
