MODEL 1
REMARK VINA RESULT:      -7.7      0.000      0.000
REMARK  Name = 705643
REMARK  4 active torsions:
REMARK  status: ('A' for Active; 'I' for Inactive)
REMARK    1  A    between atoms: S_1  and  N_5
REMARK    2  A    between atoms: S_1  and  C_7
REMARK    3  A    between atoms: C_10  and  C_16
REMARK    4  A    between atoms: C_15  and  C_17
REMARK                            x       y       z     vdW  Elec       q    Type
REMARK                         _______ _______ _______ _____ _____    ______ ____
ROOT
ATOM      1  S   UNL     1      22.834  -5.708   7.508  0.00  0.00    +0.000 S 
ATOM      2  O   UNL     1      21.926  -5.761   8.648  0.00  0.00    +0.000 OA
ATOM      3  O   UNL     1      23.437  -6.949   7.034  0.00  0.00    +0.000 OA
ENDROOT
BRANCH   1   5
ATOM      4  O   UNL     1      20.104  -2.268   7.491  0.00  0.00    +0.000 OA
ATOM      5  N   UNL     1      22.013  -4.932   6.207  0.00  0.00    +0.000 N 
ATOM      6  N   UNL     1      21.240  -3.068   7.519  0.00  0.00    +0.000 NA
ATOM     11  C   UNL     1      21.050  -3.913   6.527  0.00  0.00    +0.000 A 
ATOM     14  C   UNL     1      19.865  -3.738   5.832  0.00  0.00    +0.000 A 
ATOM     15  C   UNL     1      19.293  -2.677   6.482  0.00  0.00    +0.000 A 
ATOM     17  C   UNL     1      18.039  -1.935   6.308  0.00  0.00    +0.000 C 
ATOM     18  H   UNL     1      21.807  -5.506   5.380  0.00  0.00    +0.000 HD
ENDBRANCH   1   5
BRANCH   1   7
ATOM      7  C   UNL     1      24.107  -4.579   7.894  0.00  0.00    +0.000 A 
ATOM      8  C   UNL     1      25.122  -4.331   6.970  0.00  0.00    +0.000 A 
ATOM      9  C   UNL     1      24.109  -3.923   9.124  0.00  0.00    +0.000 A 
ATOM     10  C   UNL     1      26.142  -2.773   8.509  0.00  0.00    +0.000 A 
ATOM     12  C   UNL     1      26.140  -3.429   7.278  0.00  0.00    +0.000 A 
ATOM     13  C   UNL     1      25.127  -3.020   9.433  0.00  0.00    +0.000 A 
ATOM     16  C   UNL     1      27.230  -1.806   8.838  0.00  0.00    +0.000 C 
ENDBRANCH   1   7
TORSDOF 2
ENDMDL
MODEL 2
REMARK VINA RESULT:      -7.7      6.349      9.036
REMARK  Name = 705643
REMARK  4 active torsions:
REMARK  status: ('A' for Active; 'I' for Inactive)
REMARK    1  A    between atoms: S_1  and  N_5
REMARK    2  A    between atoms: S_1  and  C_7
REMARK    3  A    between atoms: C_10  and  C_16
REMARK    4  A    between atoms: C_15  and  C_17
REMARK                            x       y       z     vdW  Elec       q    Type
REMARK                         _______ _______ _______ _____ _____    ______ ____
ROOT
ATOM      1  S   UNL     1      28.793   0.318   9.494  0.00  0.00    +0.000 S 
ATOM      2  O   UNL     1      27.909   1.368   9.986  0.00  0.00    +0.000 OA
ATOM      3  O   UNL     1      29.839   0.671   8.540  0.00  0.00    +0.000 OA
ENDROOT
BRANCH   1   5
ATOM      4  O   UNL     1      32.180  -2.465   9.755  0.00  0.00    +0.000 OA
ATOM      5  N   UNL     1      29.495  -0.471  10.854  0.00  0.00    +0.000 N 
ATOM      6  N   UNL     1      31.402  -1.318   9.654  0.00  0.00    +0.000 NA
ATOM     11  C   UNL     1      30.510  -1.461  10.612  0.00  0.00    +0.000 A 
ATOM     14  C   UNL     1      30.633  -2.625  11.353  0.00  0.00    +0.000 A 
ATOM     15  C   UNL     1      31.712  -3.235  10.770  0.00  0.00    +0.000 A 
ATOM     17  C   UNL     1      32.423  -4.495  11.018  0.00  0.00    +0.000 C 
ATOM     18  H   UNL     1      28.882  -0.640  11.661  0.00  0.00    +0.000 HD
ENDBRANCH   1   5
BRANCH   1   7
ATOM      7  C   UNL     1      27.796  -0.931   8.793  0.00  0.00    +0.000 A 
ATOM      8  C   UNL     1      27.260  -1.933   9.602  0.00  0.00    +0.000 A 
ATOM      9  C   UNL     1      27.533  -0.928   7.424  0.00  0.00    +0.000 A 
ATOM     10  C   UNL     1      26.202  -2.928   7.673  0.00  0.00    +0.000 A 
ATOM     12  C   UNL     1      26.464  -2.932   9.042  0.00  0.00    +0.000 A 
ATOM     13  C   UNL     1      26.737  -1.926   6.862  0.00  0.00    +0.000 A 
ATOM     16  C   UNL     1      25.348  -3.995   7.073  0.00  0.00    +0.000 C 
ENDBRANCH   1   7
TORSDOF 2
ENDMDL
MODEL 3
REMARK VINA RESULT:      -6.9      6.468      9.259
REMARK  Name = 705643
REMARK  4 active torsions:
REMARK  status: ('A' for Active; 'I' for Inactive)
REMARK    1  A    between atoms: S_1  and  N_5
REMARK    2  A    between atoms: S_1  and  C_7
REMARK    3  A    between atoms: C_10  and  C_16
REMARK    4  A    between atoms: C_15  and  C_17
REMARK                            x       y       z     vdW  Elec       q    Type
REMARK                         _______ _______ _______ _____ _____    ______ ____
ROOT
ATOM      1  S   UNL     1      29.207  -0.229   9.240  0.00  0.00    +0.000 S 
ATOM      2  O   UNL     1      28.682   0.328  10.481  0.00  0.00    +0.000 OA
ATOM      3  O   UNL     1      29.575   0.681   8.162  0.00  0.00    +0.000 OA
ENDROOT
BRANCH   1   5
ATOM      4  O   UNL     1      30.575  -1.802  13.106  0.00  0.00    +0.000 OA
ATOM      5  N   UNL     1      30.551  -1.232   9.632  0.00  0.00    +0.000 N 
ATOM      6  N   UNL     1      29.886  -1.606  11.915  0.00  0.00    +0.000 NA
ATOM     11  C   UNL     1      30.843  -1.460  11.022  0.00  0.00    +0.000 A 
ATOM     14  C   UNL     1      32.130  -1.543  11.528  0.00  0.00    +0.000 A 
ATOM     15  C   UNL     1      31.909  -1.762  12.863  0.00  0.00    +0.000 A 
ATOM     17  C   UNL     1      32.792  -1.952  14.020  0.00  0.00    +0.000 C 
ATOM     18  H   UNL     1      31.362  -1.191   9.001  0.00  0.00    +0.000 HD
ENDBRANCH   1   5
BRANCH   1   7
ATOM      7  C   UNL     1      28.036  -1.371   8.632  0.00  0.00    +0.000 A 
ATOM      8  C   UNL     1      27.316  -1.082   7.472  0.00  0.00    +0.000 A 
ATOM      9  C   UNL     1      27.818  -2.573   9.304  0.00  0.00    +0.000 A 
ATOM     10  C   UNL     1      26.163  -3.196   7.659  0.00  0.00    +0.000 A 
ATOM     12  C   UNL     1      26.380  -1.994   6.986  0.00  0.00    +0.000 A 
ATOM     13  C   UNL     1      26.881  -3.486   8.820  0.00  0.00    +0.000 A 
ATOM     16  C   UNL     1      25.162  -4.173   7.139  0.00  0.00    +0.000 C 
ENDBRANCH   1   7
TORSDOF 2
ENDMDL
MODEL 4
REMARK VINA RESULT:      -6.5      9.089     11.859
REMARK  Name = 705643
REMARK  4 active torsions:
REMARK  status: ('A' for Active; 'I' for Inactive)
REMARK    1  A    between atoms: S_1  and  N_5
REMARK    2  A    between atoms: S_1  and  C_7
REMARK    3  A    between atoms: C_10  and  C_16
REMARK    4  A    between atoms: C_15  and  C_17
REMARK                            x       y       z     vdW  Elec       q    Type
REMARK                         _______ _______ _______ _____ _____    ______ ____
ROOT
ATOM      1  S   UNL     1      31.962  -2.261  12.495  0.00  0.00    +0.000 S 
ATOM      2  O   UNL     1      31.847  -1.116  13.390  0.00  0.00    +0.000 OA
ATOM      3  O   UNL     1      33.149  -2.380  11.656  0.00  0.00    +0.000 OA
ENDROOT
BRANCH   1   5
ATOM      4  O   UNL     1      33.843  -3.476  16.274  0.00  0.00    +0.000 OA
ATOM      5  N   UNL     1      31.774  -3.694  13.434  0.00  0.00    +0.000 N 
ATOM      6  N   UNL     1      33.021  -2.880  15.326  0.00  0.00    +0.000 NA
ATOM     11  C   UNL     1      32.649  -3.885  14.559  0.00  0.00    +0.000 A 
ATOM     14  C   UNL     1      33.164  -5.117  14.925  0.00  0.00    +0.000 A 
ATOM     15  C   UNL     1      33.921  -4.808  16.025  0.00  0.00    +0.000 A 
ATOM     17  C   UNL     1      34.755  -5.598  16.938  0.00  0.00    +0.000 C 
ATOM     18  H   UNL     1      31.492  -4.545  12.931  0.00  0.00    +0.000 HD
ENDBRANCH   1   5
BRANCH   1   7
ATOM      7  C   UNL     1      30.549  -2.280  11.471  0.00  0.00    +0.000 A 
ATOM      8  C   UNL     1      29.487  -1.415  11.732  0.00  0.00    +0.000 A 
ATOM      9  C   UNL     1      30.482  -3.159  10.391  0.00  0.00    +0.000 A 
ATOM     10  C   UNL     1      28.290  -2.310   9.834  0.00  0.00    +0.000 A 
ATOM     12  C   UNL     1      28.357  -1.431  10.914  0.00  0.00    +0.000 A 
ATOM     13  C   UNL     1      29.353  -3.175   9.572  0.00  0.00    +0.000 A 
ATOM     16  C   UNL     1      27.083  -2.325   8.957  0.00  0.00    +0.000 C 
ENDBRANCH   1   7
TORSDOF 2
ENDMDL
MODEL 5
REMARK VINA RESULT:      -6.3      9.324     12.220
REMARK  Name = 705643
REMARK  4 active torsions:
REMARK  status: ('A' for Active; 'I' for Inactive)
REMARK    1  A    between atoms: S_1  and  N_5
REMARK    2  A    between atoms: S_1  and  C_7
REMARK    3  A    between atoms: C_10  and  C_16
REMARK    4  A    between atoms: C_15  and  C_17
REMARK                            x       y       z     vdW  Elec       q    Type
REMARK                         _______ _______ _______ _____ _____    ______ ____
ROOT
ATOM      1  S   UNL     1      32.255  -2.674  12.654  0.00  0.00    +0.000 S 
ATOM      2  O   UNL     1      33.273  -3.415  11.918  0.00  0.00    +0.000 OA
ATOM      3  O   UNL     1      31.818  -3.181  13.950  0.00  0.00    +0.000 OA
ENDROOT
BRANCH   1   5
ATOM      4  O   UNL     1      35.015  -0.864  15.551  0.00  0.00    +0.000 OA
ATOM      5  N   UNL     1      32.796  -1.047  12.824  0.00  0.00    +0.000 N 
ATOM      6  N   UNL     1      34.483  -1.550  14.467  0.00  0.00    +0.000 NA
ATOM     11  C   UNL     1      33.589  -0.715  13.978  0.00  0.00    +0.000 A 
ATOM     14  C   UNL     1      33.481   0.486  14.658  0.00  0.00    +0.000 A 
ATOM     15  C   UNL     1      34.410   0.347  15.655  0.00  0.00    +0.000 A 
ATOM     17  C   UNL     1      34.855   1.210  16.756  0.00  0.00    +0.000 C 
ATOM     18  H   UNL     1      32.168  -0.310  12.480  0.00  0.00    +0.000 HD
ENDBRANCH   1   5
BRANCH   1   7
ATOM      7  C   UNL     1      30.860  -2.512  11.618  0.00  0.00    +0.000 A 
ATOM      8  C   UNL     1      29.861  -1.591  11.931  0.00  0.00    +0.000 A 
ATOM      9  C   UNL     1      30.744  -3.304  10.476  0.00  0.00    +0.000 A 
ATOM     10  C   UNL     1      28.630  -2.254   9.961  0.00  0.00    +0.000 A 
ATOM     12  C   UNL     1      28.746  -1.462  11.103  0.00  0.00    +0.000 A 
ATOM     13  C   UNL     1      29.629  -3.176   9.647  0.00  0.00    +0.000 A 
ATOM     16  C   UNL     1      27.439  -2.115   9.074  0.00  0.00    +0.000 C 
ENDBRANCH   1   7
TORSDOF 2
ENDMDL
MODEL 6
REMARK VINA RESULT:      -6.3      7.743     10.627
REMARK  Name = 705643
REMARK  4 active torsions:
REMARK  status: ('A' for Active; 'I' for Inactive)
REMARK    1  A    between atoms: S_1  and  N_5
REMARK    2  A    between atoms: S_1  and  C_7
REMARK    3  A    between atoms: C_10  and  C_16
REMARK    4  A    between atoms: C_15  and  C_17
REMARK                            x       y       z     vdW  Elec       q    Type
REMARK                         _______ _______ _______ _____ _____    ______ ____
ROOT
ATOM      1  S   UNL     1      30.847  -1.869  11.259  0.00  0.00    +0.000 S 
ATOM      2  O   UNL     1      30.313  -1.656  12.600  0.00  0.00    +0.000 OA
ATOM      3  O   UNL     1      32.031  -1.122  10.849  0.00  0.00    +0.000 OA
ENDROOT
BRANCH   1   5
ATOM      4  O   UNL     1      34.061  -4.434  12.802  0.00  0.00    +0.000 OA
ATOM      5  N   UNL     1      31.131  -3.556  11.059  0.00  0.00    +0.000 N 
ATOM      6  N   UNL     1      32.905  -3.673  12.683  0.00  0.00    +0.000 NA
ATOM     11  C   UNL     1      32.367  -4.098  11.558  0.00  0.00    +0.000 A 
ATOM     14  C   UNL     1      33.080  -5.093  10.911  0.00  0.00    +0.000 A 
ATOM     15  C   UNL     1      34.154  -5.276  11.742  0.00  0.00    +0.000 A 
ATOM     17  C   UNL     1      35.325  -6.160  11.708  0.00  0.00    +0.000 C 
ATOM     18  H   UNL     1      30.758  -3.992  10.206  0.00  0.00    +0.000 HD
ENDBRANCH   1   5
BRANCH   1   7
ATOM      7  C   UNL     1      29.564  -1.553  10.119  0.00  0.00    +0.000 A 
ATOM      8  C   UNL     1      28.610  -2.535   9.853  0.00  0.00    +0.000 A 
ATOM      9  C   UNL     1      29.491  -0.319   9.475  0.00  0.00    +0.000 A 
ATOM     10  C   UNL     1      27.513  -1.049   8.297  0.00  0.00    +0.000 A 
ATOM     12  C   UNL     1      27.585  -2.283   8.941  0.00  0.00    +0.000 A 
ATOM     13  C   UNL     1      28.467  -0.066   8.563  0.00  0.00    +0.000 A 
ATOM     16  C   UNL     1      26.415  -0.778   7.323  0.00  0.00    +0.000 C 
ENDBRANCH   1   7
TORSDOF 2
ENDMDL
MODEL 7
REMARK VINA RESULT:      -6.1      9.137     11.858
REMARK  Name = 705643
REMARK  4 active torsions:
REMARK  status: ('A' for Active; 'I' for Inactive)
REMARK    1  A    between atoms: S_1  and  N_5
REMARK    2  A    between atoms: S_1  and  C_7
REMARK    3  A    between atoms: C_10  and  C_16
REMARK    4  A    between atoms: C_15  and  C_17
REMARK                            x       y       z     vdW  Elec       q    Type
REMARK                         _______ _______ _______ _____ _____    ______ ____
ROOT
ATOM      1  S   UNL     1      32.669  -0.278   9.588  0.00  0.00    +0.000 S 
ATOM      2  O   UNL     1      33.418  -1.081   8.628  0.00  0.00    +0.000 OA
ATOM      3  O   UNL     1      33.159  -0.186  10.959  0.00  0.00    +0.000 OA
ENDROOT
BRANCH   1   5
ATOM      4  O   UNL     1      35.613   2.922   8.973  0.00  0.00    +0.000 OA
ATOM      5  N   UNL     1      32.487   1.305   8.934  0.00  0.00    +0.000 N 
ATOM      6  N   UNL     1      34.846   1.772   8.833  0.00  0.00    +0.000 NA
ATOM     11  C   UNL     1      33.612   2.199   9.002  0.00  0.00    +0.000 A 
ATOM     14  C   UNL     1      33.493   3.557   9.246  0.00  0.00    +0.000 A 
ATOM     15  C   UNL     1      34.797   3.978   9.218  0.00  0.00    +0.000 A 
ATOM     17  C   UNL     1      35.446   5.283   9.394  0.00  0.00    +0.000 C 
ATOM     18  H   UNL     1      31.559   1.738   9.018  0.00  0.00    +0.000 HD
ENDBRANCH   1   5
BRANCH   1   7
ATOM      7  C   UNL     1      31.031  -0.877   9.619  0.00  0.00    +0.000 A 
ATOM      8  C   UNL     1      29.987  -0.078   9.150  0.00  0.00    +0.000 A 
ATOM      9  C   UNL     1      30.763  -2.153  10.112  0.00  0.00    +0.000 A 
ATOM     10  C   UNL     1      28.410  -1.833   9.668  0.00  0.00    +0.000 A 
ATOM     12  C   UNL     1      28.677  -0.556   9.175  0.00  0.00    +0.000 A 
ATOM     13  C   UNL     1      29.453  -2.633  10.138  0.00  0.00    +0.000 A 
ATOM     16  C   UNL     1      27.009  -2.346   9.694  0.00  0.00    +0.000 C 
ENDBRANCH   1   7
TORSDOF 2
ENDMDL
MODEL 8
REMARK VINA RESULT:      -6.0      8.158     10.991
REMARK  Name = 705643
REMARK  4 active torsions:
REMARK  status: ('A' for Active; 'I' for Inactive)
REMARK    1  A    between atoms: S_1  and  N_5
REMARK    2  A    between atoms: S_1  and  C_7
REMARK    3  A    between atoms: C_10  and  C_16
REMARK    4  A    between atoms: C_15  and  C_17
REMARK                            x       y       z     vdW  Elec       q    Type
REMARK                         _______ _______ _______ _____ _____    ______ ____
ROOT
ATOM      1  S   UNL     1      31.661  -1.748  10.620  0.00  0.00    +0.000 S 
ATOM      2  O   UNL     1      32.396  -0.492  10.533  0.00  0.00    +0.000 OA
ATOM      3  O   UNL     1      32.285  -2.964  10.111  0.00  0.00    +0.000 OA
ENDROOT
BRANCH   1   5
ATOM      4  O   UNL     1      34.078  -2.620  14.181  0.00  0.00    +0.000 OA
ATOM      5  N   UNL     1      31.197  -1.982  12.263  0.00  0.00    +0.000 N 
ATOM      6  N   UNL     1      33.444  -1.975  13.127  0.00  0.00    +0.000 NA
ATOM     11  C   UNL     1      32.204  -2.414  13.195  0.00  0.00    +0.000 A 
ATOM     14  C   UNL     1      31.958  -3.309  14.223  0.00  0.00    +0.000 A 
ATOM     15  C   UNL     1      33.184  -3.411  14.827  0.00  0.00    +0.000 A 
ATOM     17  C   UNL     1      33.690  -4.170  15.976  0.00  0.00    +0.000 C 
ATOM     18  H   UNL     1      30.245  -2.331  12.431  0.00  0.00    +0.000 HD
ENDBRANCH   1   5
BRANCH   1   7
ATOM      7  C   UNL     1      30.130  -1.526   9.813  0.00  0.00    +0.000 A 
ATOM      8  C   UNL     1      29.183  -2.551   9.818  0.00  0.00    +0.000 A 
ATOM      9  C   UNL     1      29.852  -0.325   9.162  0.00  0.00    +0.000 A 
ATOM     10  C   UNL     1      27.682  -1.172   8.521  0.00  0.00    +0.000 A 
ATOM     12  C   UNL     1      27.960  -2.374   9.172  0.00  0.00    +0.000 A 
ATOM     13  C   UNL     1      28.628  -0.147   8.515  0.00  0.00    +0.000 A 
ATOM     16  C   UNL     1      26.373  -0.982   7.831  0.00  0.00    +0.000 C 
ENDBRANCH   1   7
TORSDOF 2
ENDMDL
MODEL 9
REMARK VINA RESULT:      -5.9      8.281     11.154
REMARK  Name = 705643
REMARK  4 active torsions:
REMARK  status: ('A' for Active; 'I' for Inactive)
REMARK    1  A    between atoms: S_1  and  N_5
REMARK    2  A    between atoms: S_1  and  C_7
REMARK    3  A    between atoms: C_10  and  C_16
REMARK    4  A    between atoms: C_15  and  C_17
REMARK                            x       y       z     vdW  Elec       q    Type
REMARK                         _______ _______ _______ _____ _____    ______ ____
ROOT
ATOM      1  S   UNL     1      32.136  -2.258  11.841  0.00  0.00    +0.000 S 
ATOM      2  O   UNL     1      31.970  -2.626  13.243  0.00  0.00    +0.000 OA
ATOM      3  O   UNL     1      32.780  -0.989  11.521  0.00  0.00    +0.000 OA
ENDROOT
BRANCH   1   5
ATOM      4  O   UNL     1      32.649  -6.470  12.975  0.00  0.00    +0.000 OA
ATOM      5  N   UNL     1      32.965  -3.541  11.046  0.00  0.00    +0.000 N 
ATOM      6  N   UNL     1      32.131  -5.271  12.499  0.00  0.00    +0.000 NA
ATOM     11  C   UNL     1      33.098  -4.794  11.741  0.00  0.00    +0.000 A 
ATOM     14  C   UNL     1      34.231  -5.588  11.674  0.00  0.00    +0.000 A 
ATOM     15  C   UNL     1      33.899  -6.647  12.476  0.00  0.00    +0.000 A 
ATOM     17  C   UNL     1      34.598  -7.873  12.881  0.00  0.00    +0.000 C 
ATOM     18  H   UNL     1      33.746  -3.280  10.432  0.00  0.00    +0.000 HD
ENDBRANCH   1   5
BRANCH   1   7
ATOM      7  C   UNL     1      30.560  -2.290  11.092  0.00  0.00    +0.000 A 
ATOM      8  C   UNL     1      29.558  -1.427  11.537  0.00  0.00    +0.000 A 
ATOM      9  C   UNL     1      30.302  -3.177  10.048  0.00  0.00    +0.000 A 
ATOM     10  C   UNL     1      28.041  -2.341   9.895  0.00  0.00    +0.000 A 
ATOM     12  C   UNL     1      28.299  -1.453  10.939  0.00  0.00    +0.000 A 
ATOM     13  C   UNL     1      29.042  -3.204   9.449  0.00  0.00    +0.000 A 
ATOM     16  C   UNL     1      26.694  -2.368   9.253  0.00  0.00    +0.000 C 
ENDBRANCH   1   7
TORSDOF 2
ENDMDL
MODEL 10
REMARK VINA RESULT:      -5.9     16.707     18.243
REMARK  Name = 705643
REMARK  4 active torsions:
REMARK  status: ('A' for Active; 'I' for Inactive)
REMARK    1  A    between atoms: S_1  and  N_5
REMARK    2  A    between atoms: S_1  and  C_7
REMARK    3  A    between atoms: C_10  and  C_16
REMARK    4  A    between atoms: C_15  and  C_17
REMARK                            x       y       z     vdW  Elec       q    Type
REMARK                         _______ _______ _______ _____ _____    ______ ____
ROOT
ATOM      1  S   UNL     1      16.727  -8.794  22.222  0.00  0.00    +0.000 S 
ATOM      2  O   UNL     1      17.077  -7.385  22.361  0.00  0.00    +0.000 OA
ATOM      3  O   UNL     1      16.222  -9.268  20.938  0.00  0.00    +0.000 OA
ENDROOT
BRANCH   1   5
ATOM      4  O   UNL     1      20.675  -9.224  20.346  0.00  0.00    +0.000 OA
ATOM      5  N   UNL     1      18.095  -9.733  22.686  0.00  0.00    +0.000 N 
ATOM      6  N   UNL     1      19.590  -8.752  21.074  0.00  0.00    +0.000 NA
ATOM     11  C   UNL     1      19.210  -9.797  21.780  0.00  0.00    +0.000 A 
ATOM     14  C   UNL     1      19.964 -10.941  21.578  0.00  0.00    +0.000 A 
ATOM     15  C   UNL     1      20.888 -10.528  20.654  0.00  0.00    +0.000 A 
ATOM     17  C   UNL     1      22.005 -11.189  19.969  0.00  0.00    +0.000 C 
ATOM     18  H   UNL     1      17.911 -10.581  23.238  0.00  0.00    +0.000 HD
ENDBRANCH   1   5
BRANCH   1   7
ATOM      7  C   UNL     1      15.557  -9.176  23.459  0.00  0.00    +0.000 A 
ATOM      8  C   UNL     1      14.591 -10.155  23.227  0.00  0.00    +0.000 A 
ATOM      9  C   UNL     1      15.586  -8.503  24.679  0.00  0.00    +0.000 A 
ATOM     10  C   UNL     1      13.685  -9.787  25.435  0.00  0.00    +0.000 A 
ATOM     12  C   UNL     1      13.655 -10.460  24.215  0.00  0.00    +0.000 A 
ATOM     13  C   UNL     1      14.650  -8.807  25.668  0.00  0.00    +0.000 A 
ATOM     16  C   UNL     1      12.685 -10.114  26.493  0.00  0.00    +0.000 C 
ENDBRANCH   1   7
TORSDOF 2
ENDMDL
