REMARK  Name = 705643
REMARK  4 active torsions:
REMARK  status: ('A' for Active; 'I' for Inactive)
REMARK    1  A    between atoms: S_1  and  N_5
REMARK    2  A    between atoms: S_1  and  C_7
REMARK    3  A    between atoms: C_10  and  C_16
REMARK    4  A    between atoms: C_15  and  C_17
REMARK                            x       y       z     vdW  Elec       q    Type
REMARK                         _______ _______ _______ _____ _____    ______ ____
ROOT
ATOM      1  S   UNL     1       0.240  -2.209  -0.084  0.00  0.00    +0.000 S 
ATOM      2  O   UNL     1       0.912  -3.216   0.729  0.00  0.00    +0.000 OA
ATOM      3  O   UNL     1      -0.084  -2.528  -1.470  0.00  0.00    +0.000 OA
ENDROOT
BRANCH   1   5
ATOM      4  O   UNL     1      -2.635   0.988  -0.979  0.00  0.00    +0.000 OA
ATOM      5  N   UNL     1      -1.189  -1.720   0.744  0.00  0.00    +0.000 N 
ATOM      6  N   UNL     1      -1.933  -0.211  -0.978  0.00  0.00    +0.000 NA
ATOM     11  C   UNL     1      -1.853  -0.524   0.299  0.00  0.00    +0.000 A 
ATOM     14  C   UNL     1      -2.453   0.381   1.159  0.00  0.00    +0.000 A 
ATOM     15  C   UNL     1      -2.939   1.330   0.299  0.00  0.00    +0.000 A 
ATOM     17  C   UNL     1      -3.686   2.580   0.483  0.00  0.00    +0.000 C 
ATOM     18  H   UNL     1      -1.230  -1.911   1.753  0.00  0.00    +0.000 HD
ENDBRANCH   1   5
BRANCH   1   7
ATOM      7  C   UNL     1       1.218  -0.764  -0.057  0.00  0.00    +0.000 A 
ATOM      8  C   UNL     1       2.097  -0.536   1.002  0.00  0.00    +0.000 A 
ATOM      9  C   UNL     1       1.122   0.163  -1.094  0.00  0.00    +0.000 A 
ATOM     10  C   UNL     1       2.782   1.546  -0.013  0.00  0.00    +0.000 A 
ATOM     12  C   UNL     1       2.878   0.619   1.024  0.00  0.00    +0.000 A 
ATOM     13  C   UNL     1       1.903   1.319  -1.073  0.00  0.00    +0.000 A 
ATOM     16  C   UNL     1       3.619   2.781   0.009  0.00  0.00    +0.000 C 
ENDBRANCH   1   7
TORSDOF 2
