MODEL 1
REMARK VINA RESULT:      -5.9      0.000      0.000
REMARK  Name = 4596756
REMARK  3 active torsions:
REMARK  status: ('A' for Active; 'I' for Inactive)
REMARK    1  A    between atoms: S_4  and  N_8
REMARK    2  A    between atoms: S_4  and  C_10
REMARK    3  A    between atoms: C_18  and  C_19
REMARK                            x       y       z     vdW  Elec       q    Type
REMARK                         _______ _______ _______ _____ _____    ______ ____
ROOT
ATOM      4  S   UNL     1      32.830  -1.056   9.966  0.00  0.00    +0.000 S 
ATOM      5  O   UNL     1      33.519  -1.704   8.858  0.00  0.00    +0.000 OA
ATOM      6  O   UNL     1      33.268  -1.330  11.328  0.00  0.00    +0.000 OA
ENDROOT
BRANCH   4  10
ATOM      1 CL   UNL     1      31.745  -4.084  10.305  0.00  0.00    +0.000 Cl
ATOM      2 CL   UNL     1      27.798   0.615   9.156  0.00  0.00    +0.000 Cl
ATOM      3 CL   UNL     1      26.728  -2.420   9.501  0.00  0.00    +0.000 Cl
ATOM     10  C   UNL     1      31.130  -1.463   9.839  0.00  0.00    +0.000 A 
ATOM     11  C   UNL     1      30.670  -2.771   9.987  0.00  0.00    +0.000 A 
ATOM     12  C   UNL     1      30.228  -0.430   9.583  0.00  0.00    +0.000 A 
ATOM     14  C   UNL     1      28.864  -0.706   9.476  0.00  0.00    +0.000 A 
ATOM     15  C   UNL     1      29.306  -3.046   9.881  0.00  0.00    +0.000 A 
ATOM     17  C   UNL     1      28.404  -2.014   9.624  0.00  0.00    +0.000 A 
ENDBRANCH   4  10
BRANCH   4   8
ATOM      7  O   UNL     1      36.084   1.651   8.796  0.00  0.00    +0.000 OA
ATOM      8  N   UNL     1      32.833   0.641   9.684  0.00  0.00    +0.000 N 
ATOM      9  N   UNL     1      35.225   0.835   9.521  0.00  0.00    +0.000 NA
ATOM     13  C   UNL     1      34.028   1.241   9.154  0.00  0.00    +0.000 A 
ATOM     16  C   UNL     1      34.019   2.275   8.233  0.00  0.00    +0.000 A 
ATOM     18  C   UNL     1      35.354   2.506   8.033  0.00  0.00    +0.000 A 
ATOM     19  C   UNL     1      36.109   3.447   7.197  0.00  0.00    +0.000 C 
ATOM     20  H   UNL     1      31.944   1.066   9.387  0.00  0.00    +0.000 HD
ENDBRANCH   4   8
TORSDOF 2
ENDMDL
MODEL 2
REMARK VINA RESULT:      -5.9      4.864      6.475
REMARK  Name = 4596756
REMARK  3 active torsions:
REMARK  status: ('A' for Active; 'I' for Inactive)
REMARK    1  A    between atoms: S_4  and  N_8
REMARK    2  A    between atoms: S_4  and  C_10
REMARK    3  A    between atoms: C_18  and  C_19
REMARK                            x       y       z     vdW  Elec       q    Type
REMARK                         _______ _______ _______ _____ _____    ______ ____
ROOT
ATOM      4  S   UNL     1      30.923  -2.267  11.291  0.00  0.00    +0.000 S 
ATOM      5  O   UNL     1      31.649  -1.590  10.225  0.00  0.00    +0.000 OA
ATOM      6  O   UNL     1      30.717  -1.575  12.556  0.00  0.00    +0.000 OA
ENDROOT
BRANCH   4  10
ATOM      1 CL   UNL     1      32.001  -4.189   8.924  0.00  0.00    +0.000 Cl
ATOM      2 CL   UNL     1      32.805  -5.742  14.918  0.00  0.00    +0.000 Cl
ATOM      3 CL   UNL     1      33.881  -7.653  12.538  0.00  0.00    +0.000 Cl
ATOM     10  C   UNL     1      31.751  -3.778  11.614  0.00  0.00    +0.000 A 
ATOM     11  C   UNL     1      32.214  -4.601  10.588  0.00  0.00    +0.000 A 
ATOM     12  C   UNL     1      31.943  -4.147  12.945  0.00  0.00    +0.000 A 
ATOM     14  C   UNL     1      32.600  -5.339  13.251  0.00  0.00    +0.000 A 
ATOM     15  C   UNL     1      32.870  -5.793  10.893  0.00  0.00    +0.000 A 
ATOM     17  C   UNL     1      33.062  -6.163  12.224  0.00  0.00    +0.000 A 
ENDBRANCH   4  10
BRANCH   4   8
ATOM      7  O   UNL     1      27.747  -0.049   9.222  0.00  0.00    +0.000 OA
ATOM      8  N   UNL     1      29.410  -2.794  10.663  0.00  0.00    +0.000 N 
ATOM      9  N   UNL     1      28.583  -0.584  10.194  0.00  0.00    +0.000 NA
ATOM     13  C   UNL     1      28.634  -1.864   9.888  0.00  0.00    +0.000 A 
ATOM     16  C   UNL     1      27.889  -2.229   8.779  0.00  0.00    +0.000 A 
ATOM     18  C   UNL     1      27.340  -1.038   8.385  0.00  0.00    +0.000 A 
ATOM     19  C   UNL     1      26.444  -0.645   7.292  0.00  0.00    +0.000 C 
ATOM     20  H   UNL     1      29.339  -3.783  10.387  0.00  0.00    +0.000 HD
ENDBRANCH   4   8
TORSDOF 2
ENDMDL
MODEL 3
REMARK VINA RESULT:      -5.7      4.572      6.243
REMARK  Name = 4596756
REMARK  3 active torsions:
REMARK  status: ('A' for Active; 'I' for Inactive)
REMARK    1  A    between atoms: S_4  and  N_8
REMARK    2  A    between atoms: S_4  and  C_10
REMARK    3  A    between atoms: C_18  and  C_19
REMARK                            x       y       z     vdW  Elec       q    Type
REMARK                         _______ _______ _______ _____ _____    ______ ____
ROOT
ATOM      4  S   UNL     1      31.863  -2.321  10.937  0.00  0.00    +0.000 S 
ATOM      5  O   UNL     1      32.226  -2.371   9.527  0.00  0.00    +0.000 OA
ATOM      6  O   UNL     1      32.444  -1.285  11.780  0.00  0.00    +0.000 OA
ENDROOT
BRANCH   4  10
ATOM      1 CL   UNL     1      31.390  -2.980  14.068  0.00  0.00    +0.000 Cl
ATOM      2 CL   UNL     1      33.734  -7.296  10.213  0.00  0.00    +0.000 Cl
ATOM      3 CL   UNL     1      33.252  -7.940  13.347  0.00  0.00    +0.000 Cl
ATOM     10  C   UNL     1      32.245  -3.883  11.635  0.00  0.00    +0.000 A 
ATOM     11  C   UNL     1      32.037  -4.160  12.985  0.00  0.00    +0.000 A 
ATOM     12  C   UNL     1      32.769  -4.864  10.794  0.00  0.00    +0.000 A 
ATOM     14  C   UNL     1      33.086  -6.124  11.304  0.00  0.00    +0.000 A 
ATOM     15  C   UNL     1      32.353  -5.419  13.496  0.00  0.00    +0.000 A 
ATOM     17  C   UNL     1      32.879  -6.400  12.655  0.00  0.00    +0.000 A 
ENDBRANCH   4  10
BRANCH   4   8
ATOM      7  O   UNL     1      28.915   0.080   8.737  0.00  0.00    +0.000 OA
ATOM      8  N   UNL     1      30.147  -2.268  11.051  0.00  0.00    +0.000 N 
ATOM      9  N   UNL     1      29.890  -0.341   9.634  0.00  0.00    +0.000 NA
ATOM     13  C   UNL     1      29.425  -1.488  10.082  0.00  0.00    +0.000 A 
ATOM     16  C   UNL     1      28.203  -1.869   9.552  0.00  0.00    +0.000 A 
ATOM     18  C   UNL     1      27.915  -0.838   8.698  0.00  0.00    +0.000 A 
ATOM     19  C   UNL     1      26.795  -0.550   7.795  0.00  0.00    +0.000 C 
ATOM     20  H   UNL     1      29.676  -3.118  11.389  0.00  0.00    +0.000 HD
ENDBRANCH   4   8
TORSDOF 2
ENDMDL
MODEL 4
REMARK VINA RESULT:      -5.6     18.633     19.457
REMARK  Name = 4596756
REMARK  3 active torsions:
REMARK  status: ('A' for Active; 'I' for Inactive)
REMARK    1  A    between atoms: S_4  and  N_8
REMARK    2  A    between atoms: S_4  and  C_10
REMARK    3  A    between atoms: C_18  and  C_19
REMARK                            x       y       z     vdW  Elec       q    Type
REMARK                         _______ _______ _______ _____ _____    ______ ____
ROOT
ATOM      4  S   UNL     1      25.993   7.212  -6.334  0.00  0.00    +0.000 S 
ATOM      5  O   UNL     1      26.934   7.283  -7.443  0.00  0.00    +0.000 OA
ATOM      6  O   UNL     1      26.118   6.127  -5.370  0.00  0.00    +0.000 OA
ENDROOT
BRANCH   4  10
ATOM      1 CL   UNL     1      24.710   4.508  -7.559  0.00  0.00    +0.000 Cl
ATOM      2 CL   UNL     1      21.477   9.849  -7.526  0.00  0.00    +0.000 Cl
ATOM      3 CL   UNL     1      20.206   7.134  -8.745  0.00  0.00    +0.000 Cl
ATOM     10  C   UNL     1      24.379   7.165  -7.015  0.00  0.00    +0.000 A 
ATOM     11  C   UNL     1      23.832   5.995  -7.540  0.00  0.00    +0.000 A 
ATOM     12  C   UNL     1      23.636   8.345  -7.019  0.00  0.00    +0.000 A 
ATOM     14  C   UNL     1      22.345   8.356  -7.548  0.00  0.00    +0.000 A 
ATOM     15  C   UNL     1      22.541   6.005  -8.069  0.00  0.00    +0.000 A 
ATOM     17  C   UNL     1      21.798   7.185  -8.074  0.00  0.00    +0.000 A 
ENDBRANCH   4  10
BRANCH   4   8
ATOM      7  O   UNL     1      29.338   9.835  -5.228  0.00  0.00    +0.000 OA
ATOM      8  N   UNL     1      26.011   8.724  -5.513  0.00  0.00    +0.000 N 
ATOM      9  N   UNL     1      28.402   8.808  -5.256  0.00  0.00    +0.000 NA
ATOM     13  C   UNL     1      27.257   9.436  -5.427  0.00  0.00    +0.000 A 
ATOM     16  C   UNL     1      27.356  10.815  -5.514  0.00  0.00    +0.000 A 
ATOM     18  C   UNL     1      28.703  11.025  -5.381  0.00  0.00    +0.000 A 
ATOM     19  C   UNL     1      29.547  12.225  -5.374  0.00  0.00    +0.000 C 
ATOM     20  H   UNL     1      25.163   9.302  -5.583  0.00  0.00    +0.000 HD
ENDBRANCH   4   8
TORSDOF 2
ENDMDL
MODEL 5
REMARK VINA RESULT:      -5.5      3.020      3.602
REMARK  Name = 4596756
REMARK  3 active torsions:
REMARK  status: ('A' for Active; 'I' for Inactive)
REMARK    1  A    between atoms: S_4  and  N_8
REMARK    2  A    between atoms: S_4  and  C_10
REMARK    3  A    between atoms: C_18  and  C_19
REMARK                            x       y       z     vdW  Elec       q    Type
REMARK                         _______ _______ _______ _____ _____    ______ ____
ROOT
ATOM      4  S   UNL     1      32.845  -1.223  10.446  0.00  0.00    +0.000 S 
ATOM      5  O   UNL     1      33.018   0.210  10.248  0.00  0.00    +0.000 OA
ATOM      6  O   UNL     1      33.686  -2.146   9.696  0.00  0.00    +0.000 OA
ENDROOT
BRANCH   4  10
ATOM      1 CL   UNL     1      31.724  -4.256  10.437  0.00  0.00    +0.000 Cl
ATOM      2 CL   UNL     1      27.931   0.555   9.236  0.00  0.00    +0.000 Cl
ATOM      3 CL   UNL     1      26.825  -2.486   9.235  0.00  0.00    +0.000 Cl
ATOM     10  C   UNL     1      31.167  -1.602  10.108  0.00  0.00    +0.000 A 
ATOM     11  C   UNL     1      30.691  -2.912  10.108  0.00  0.00    +0.000 A 
ATOM     12  C   UNL     1      30.300  -0.544   9.838  0.00  0.00    +0.000 A 
ATOM     14  C   UNL     1      28.955  -0.797   9.566  0.00  0.00    +0.000 A 
ATOM     15  C   UNL     1      29.346  -3.165   9.837  0.00  0.00    +0.000 A 
ATOM     17  C   UNL     1      28.479  -2.108   9.565  0.00  0.00    +0.000 A 
ENDBRANCH   4  10
BRANCH   4   8
ATOM      7  O   UNL     1      35.138   0.798  13.600  0.00  0.00    +0.000 OA
ATOM      8  N   UNL     1      32.974  -1.555  12.129  0.00  0.00    +0.000 N 
ATOM      9  N   UNL     1      34.767   0.000  12.525  0.00  0.00    +0.000 NA
ATOM     13  C   UNL     1      33.686  -0.617  12.954  0.00  0.00    +0.000 A 
ATOM     16  C   UNL     1      33.303  -0.292  14.246  0.00  0.00    +0.000 A 
ATOM     18  C   UNL     1      34.259   0.615  14.619  0.00  0.00    +0.000 A 
ATOM     19  C   UNL     1      34.504   1.387  15.843  0.00  0.00    +0.000 C 
ATOM     20  H   UNL     1      32.179  -2.035  12.572  0.00  0.00    +0.000 HD
ENDBRANCH   4   8
TORSDOF 2
ENDMDL
MODEL 6
REMARK VINA RESULT:      -5.3      3.683      6.191
REMARK  Name = 4596756
REMARK  3 active torsions:
REMARK  status: ('A' for Active; 'I' for Inactive)
REMARK    1  A    between atoms: S_4  and  N_8
REMARK    2  A    between atoms: S_4  and  C_10
REMARK    3  A    between atoms: C_18  and  C_19
REMARK                            x       y       z     vdW  Elec       q    Type
REMARK                         _______ _______ _______ _____ _____    ______ ____
ROOT
ATOM      4  S   UNL     1      33.238  -2.850  11.158  0.00  0.00    +0.000 S 
ATOM      5  O   UNL     1      33.974  -2.015  12.099  0.00  0.00    +0.000 OA
ATOM      6  O   UNL     1      33.960  -3.490  10.067  0.00  0.00    +0.000 OA
ENDROOT
BRANCH   4  10
ATOM      1 CL   UNL     1      33.835  -0.301   9.259  0.00  0.00    +0.000 Cl
ATOM      2 CL   UNL     1      27.975  -1.946  10.653  0.00  0.00    +0.000 Cl
ATOM      3 CL   UNL     1      28.589   0.600   8.752  0.00  0.00    +0.000 Cl
ATOM     10  C   UNL     1      31.956  -1.869  10.475  0.00  0.00    +0.000 A 
ATOM     11  C   UNL     1      32.222  -0.773   9.656  0.00  0.00    +0.000 A 
ATOM     12  C   UNL     1      30.639  -2.217  10.772  0.00  0.00    +0.000 A 
ATOM     14  C   UNL     1      29.585  -1.467  10.248  0.00  0.00    +0.000 A 
ATOM     15  C   UNL     1      31.168  -0.023   9.132  0.00  0.00    +0.000 A 
ATOM     17  C   UNL     1      29.850  -0.369   9.429  0.00  0.00    +0.000 A 
ENDBRANCH   4  10
BRANCH   4   8
ATOM      7  O   UNL     1      32.676  -7.146  10.439  0.00  0.00    +0.000 OA
ATOM      8  N   UNL     1      32.369  -4.035  12.053  0.00  0.00    +0.000 N 
ATOM      9  N   UNL     1      32.571  -5.762  10.390  0.00  0.00    +0.000 NA
ATOM     13  C   UNL     1      32.492  -5.412  11.657  0.00  0.00    +0.000 A 
ATOM     16  C   UNL     1      32.534  -6.464  12.557  0.00  0.00    +0.000 A 
ATOM     18  C   UNL     1      32.652  -7.553  11.735  0.00  0.00    +0.000 A 
ATOM     19  C   UNL     1      32.753  -8.998  11.971  0.00  0.00    +0.000 C 
ATOM     20  H   UNL     1      32.250  -3.863  13.061  0.00  0.00    +0.000 HD
ENDBRANCH   4   8
TORSDOF 2
ENDMDL
MODEL 7
REMARK VINA RESULT:      -5.2     20.049     22.362
REMARK  Name = 4596756
REMARK  3 active torsions:
REMARK  status: ('A' for Active; 'I' for Inactive)
REMARK    1  A    between atoms: S_4  and  N_8
REMARK    2  A    between atoms: S_4  and  C_10
REMARK    3  A    between atoms: C_18  and  C_19
REMARK                            x       y       z     vdW  Elec       q    Type
REMARK                         _______ _______ _______ _____ _____    ______ ____
ROOT
ATOM      4  S   UNL     1      17.242  -9.258  22.107  0.00  0.00    +0.000 S 
ATOM      5  O   UNL     1      17.848  -7.955  22.345  0.00  0.00    +0.000 OA
ATOM      6  O   UNL     1      16.563  -9.501  20.841  0.00  0.00    +0.000 OA
ENDROOT
BRANCH   4  10
ATOM      1 CL   UNL     1      14.064  -8.753  21.790  0.00  0.00    +0.000 Cl
ATOM      2 CL   UNL     1      16.443 -10.876  27.158  0.00  0.00    +0.000 Cl
ATOM      3 CL   UNL     1      13.264 -10.368  26.823  0.00  0.00    +0.000 Cl
ATOM     10  C   UNL     1      16.111  -9.559  23.411  0.00  0.00    +0.000 A 
ATOM     11  C   UNL     1      14.741  -9.340  23.266  0.00  0.00    +0.000 A 
ATOM     12  C   UNL     1      16.618 -10.034  24.620  0.00  0.00    +0.000 A 
ATOM     14  C   UNL     1      15.754 -10.291  25.685  0.00  0.00    +0.000 A 
ATOM     15  C   UNL     1      13.878  -9.597  24.331  0.00  0.00    +0.000 A 
ATOM     17  C   UNL     1      14.384 -10.071  25.541  0.00  0.00    +0.000 A 
ENDBRANCH   4  10
BRANCH   4   8
ATOM      7  O   UNL     1      21.284  -9.686  20.440  0.00  0.00    +0.000 OA
ATOM      8  N   UNL     1      18.442 -10.465  22.364  0.00  0.00    +0.000 N 
ATOM      9  N   UNL     1      19.905  -9.699  20.614  0.00  0.00    +0.000 NA
ATOM     13  C   UNL     1      19.747 -10.259  21.795  0.00  0.00    +0.000 A 
ATOM     16  C   UNL     1      20.923 -10.626  22.429  0.00  0.00    +0.000 A 
ATOM     18  C   UNL     1      21.879 -10.241  21.527  0.00  0.00    +0.000 A 
ATOM     19  C   UNL     1      23.344 -10.309  21.510  0.00  0.00    +0.000 C 
ATOM     20  H   UNL     1      18.414 -10.966  23.262  0.00  0.00    +0.000 HD
ENDBRANCH   4   8
TORSDOF 2
ENDMDL
MODEL 8
REMARK VINA RESULT:      -5.2     22.584     23.898
REMARK  Name = 4596756
REMARK  3 active torsions:
REMARK  status: ('A' for Active; 'I' for Inactive)
REMARK    1  A    between atoms: S_4  and  N_8
REMARK    2  A    between atoms: S_4  and  C_10
REMARK    3  A    between atoms: C_18  and  C_19
REMARK                            x       y       z     vdW  Elec       q    Type
REMARK                         _______ _______ _______ _____ _____    ______ ____
ROOT
ATOM      4  S   UNL     1      18.164 -10.073  22.954  0.00  0.00    +0.000 S 
ATOM      5  O   UNL     1      19.100  -9.107  23.511  0.00  0.00    +0.000 OA
ATOM      6  O   UNL     1      17.951 -10.103  21.514  0.00  0.00    +0.000 OA
ENDROOT
BRANCH   4  10
ATOM      1 CL   UNL     1      15.818  -8.294  21.616  0.00  0.00    +0.000 Cl
ATOM      2 CL   UNL     1      14.994 -11.002  27.181  0.00  0.00    +0.000 Cl
ATOM      3 CL   UNL     1      12.656  -9.221  25.827  0.00  0.00    +0.000 Cl
ATOM     10  C   UNL     1      16.617  -9.819  23.738  0.00  0.00    +0.000 A 
ATOM     11  C   UNL     1      15.610  -9.051  23.154  0.00  0.00    +0.000 A 
ATOM     12  C   UNL     1      16.408 -10.414  24.982  0.00  0.00    +0.000 A 
ATOM     14  C   UNL     1      15.191 -10.241  25.642  0.00  0.00    +0.000 A 
ATOM     15  C   UNL     1      14.393  -8.879  23.814  0.00  0.00    +0.000 A 
ATOM     17  C   UNL     1      14.184  -9.473  25.058  0.00  0.00    +0.000 A 
ENDBRANCH   4  10
BRANCH   4   8
ATOM      7  O   UNL     1      16.851 -14.060  21.658  0.00  0.00    +0.000 OA
ATOM      8  N   UNL     1      18.613 -11.640  23.508  0.00  0.00    +0.000 N 
ATOM      9  N   UNL     1      16.920 -12.810  22.260  0.00  0.00    +0.000 NA
ATOM     13  C   UNL     1      18.129 -12.782  22.781  0.00  0.00    +0.000 A 
ATOM     16  C   UNL     1      18.880 -13.928  22.573  0.00  0.00    +0.000 A 
ATOM     18  C   UNL     1      18.024 -14.717  21.852  0.00  0.00    +0.000 A 
ATOM     19  C   UNL     1      18.124 -16.063  21.277  0.00  0.00    +0.000 C 
ATOM     20  H   UNL     1      19.545 -11.734  23.932  0.00  0.00    +0.000 HD
ENDBRANCH   4   8
TORSDOF 2
ENDMDL
MODEL 9
REMARK VINA RESULT:      -5.2     18.547     19.437
REMARK  Name = 4596756
REMARK  3 active torsions:
REMARK  status: ('A' for Active; 'I' for Inactive)
REMARK    1  A    between atoms: S_4  and  N_8
REMARK    2  A    between atoms: S_4  and  C_10
REMARK    3  A    between atoms: C_18  and  C_19
REMARK                            x       y       z     vdW  Elec       q    Type
REMARK                         _______ _______ _______ _____ _____    ______ ____
ROOT
ATOM      4  S   UNL     1      26.704   8.598  -5.814  0.00  0.00    +0.000 S 
ATOM      5  O   UNL     1      27.904   8.134  -6.497  0.00  0.00    +0.000 OA
ATOM      6  O   UNL     1      26.608   8.441  -4.370  0.00  0.00    +0.000 OA
ENDROOT
BRANCH   4  10
ATOM      1 CL   UNL     1      26.297   5.393  -5.670  0.00  0.00    +0.000 Cl
ATOM      2 CL   UNL     1      22.161   9.009  -8.636  0.00  0.00    +0.000 Cl
ATOM      3 CL   UNL     1      21.767   5.801  -8.479  0.00  0.00    +0.000 Cl
ATOM     10  C   UNL     1      25.334   7.793  -6.553  0.00  0.00    +0.000 A 
ATOM     11  C   UNL     1      25.165   6.411  -6.485  0.00  0.00    +0.000 A 
ATOM     12  C   UNL     1      24.396   8.579  -7.221  0.00  0.00    +0.000 A 
ATOM     14  C   UNL     1      23.287   7.982  -7.821  0.00  0.00    +0.000 A 
ATOM     15  C   UNL     1      24.056   5.814  -7.085  0.00  0.00    +0.000 A 
ATOM     17  C   UNL     1      23.118   6.599  -7.754  0.00  0.00    +0.000 A 
ENDBRANCH   4  10
BRANCH   4   8
ATOM      7  O   UNL     1      28.564  12.277  -4.297  0.00  0.00    +0.000 OA
ATOM      8  N   UNL     1      26.445  10.246  -6.238  0.00  0.00    +0.000 N 
ATOM      9  N   UNL     1      27.768  11.147  -4.442  0.00  0.00    +0.000 NA
ATOM     13  C   UNL     1      27.322  11.238  -5.677  0.00  0.00    +0.000 A 
ATOM     16  C   UNL     1      27.761  12.351  -6.375  0.00  0.00    +0.000 A 
ATOM     18  C   UNL     1      28.552  12.986  -5.455  0.00  0.00    +0.000 A 
ATOM     19  C   UNL     1      29.347  14.219  -5.477  0.00  0.00    +0.000 C 
ATOM     20  H   UNL     1      26.099  10.433  -7.189  0.00  0.00    +0.000 HD
ENDBRANCH   4   8
TORSDOF 2
ENDMDL
MODEL 10
REMARK VINA RESULT:      -5.1      4.879      6.417
REMARK  Name = 4596756
REMARK  3 active torsions:
REMARK  status: ('A' for Active; 'I' for Inactive)
REMARK    1  A    between atoms: S_4  and  N_8
REMARK    2  A    between atoms: S_4  and  C_10
REMARK    3  A    between atoms: C_18  and  C_19
REMARK                            x       y       z     vdW  Elec       q    Type
REMARK                         _______ _______ _______ _____ _____    ______ ____
ROOT
ATOM      4  S   UNL     1      32.081  -3.099  12.113  0.00  0.00    +0.000 S 
ATOM      5  O   UNL     1      31.915  -4.398  12.749  0.00  0.00    +0.000 OA
ATOM      6  O   UNL     1      32.487  -3.043  10.716  0.00  0.00    +0.000 OA
ENDROOT
BRANCH   4  10
ATOM      1 CL   UNL     1      35.172  -4.008  12.399  0.00  0.00    +0.000 Cl
ATOM      2 CL   UNL     1      33.076   1.132  15.258  0.00  0.00    +0.000 Cl
ATOM      3 CL   UNL     1      36.166   0.209  15.531  0.00  0.00    +0.000 Cl
ATOM     10  C   UNL     1      33.241  -2.192  13.064  0.00  0.00    +0.000 A 
ATOM     11  C   UNL     1      34.573  -2.590  13.181  0.00  0.00    +0.000 A 
ATOM     12  C   UNL     1      32.798  -1.040  13.712  0.00  0.00    +0.000 A 
ATOM     14  C   UNL     1      33.686  -0.284  14.478  0.00  0.00    +0.000 A 
ATOM     15  C   UNL     1      35.461  -1.834  13.947  0.00  0.00    +0.000 A 
ATOM     17  C   UNL     1      35.018  -0.682  14.596  0.00  0.00    +0.000 A 
ENDBRANCH   4  10
BRANCH   4   8
ATOM      7  O   UNL     1      30.131  -0.122   9.539  0.00  0.00    +0.000 OA
ATOM      8  N   UNL     1      30.630  -2.200  12.334  0.00  0.00    +0.000 N 
ATOM      9  N   UNL     1      30.976  -0.753  10.444  0.00  0.00    +0.000 NA
ATOM     13  C   UNL     1      30.151  -1.402  11.238  0.00  0.00    +0.000 A 
ATOM     16  C   UNL     1      28.808  -1.252  10.932  0.00  0.00    +0.000 A 
ATOM     18  C   UNL     1      28.843  -0.426   9.841  0.00  0.00    +0.000 A 
ATOM     19  C   UNL     1      27.811   0.162   8.979  0.00  0.00    +0.000 C 
ATOM     20  H   UNL     1      29.910  -2.620  12.937  0.00  0.00    +0.000 HD
ENDBRANCH   4   8
TORSDOF 2
ENDMDL
