MODEL 1
REMARK VINA RESULT:      -7.3      0.000      0.000
REMARK  Name = 31771
REMARK  5 active torsions:
REMARK  status: ('A' for Active; 'I' for Inactive)
REMARK    1  A    between atoms: S_1  and  N_5
REMARK    2  A    between atoms: S_1  and  C_8
REMARK    3  A    between atoms: N_7  and  C_17
REMARK    4  A    between atoms: C_10  and  C_14
REMARK    5  A    between atoms: C_11  and  C_18
REMARK                            x       y       z     vdW  Elec       q    Type
REMARK                         _______ _______ _______ _____ _____    ______ ____
ROOT
ATOM      1  S   UNL     1      28.630  -0.102   9.936  0.00  0.00    +0.000 S 
ATOM      3  O   UNL     1      28.878  -0.744  11.222  0.00  0.00    +0.000 OA
ATOM      4  O   UNL     1      27.947   1.185   9.914  0.00  0.00    +0.000 OA
ENDROOT
BRANCH   1   5
ATOM      2  O   UNL     1      32.303  -2.376  10.480  0.00  0.00    +0.000 OA
ATOM      5  N   UNL     1      30.132   0.028   9.104  0.00  0.00    +0.000 N 
ATOM      6  N   UNL     1      31.022  -1.893  10.241  0.00  0.00    +0.000 NA
ATOM      9  C   UNL     1      31.228  -0.789   9.552  0.00  0.00    +0.000 A 
ATOM     10  C   UNL     1      32.560  -0.495   9.311  0.00  0.00    +0.000 A 
ATOM     11  C   UNL     1      33.209  -1.535   9.921  0.00  0.00    +0.000 A 
ATOM     14  C   UNL     1      33.158   0.639   8.586  0.00  0.00    +0.000 C 
ATOM     18  C   UNL     1      34.624  -1.899  10.083  0.00  0.00    +0.000 C 
ATOM     19  H   UNL     1      30.366   0.905   8.622  0.00  0.00    +0.000 HD
ENDBRANCH   1   5
BRANCH   1   8
ATOM      8  C   UNL     1      27.735  -1.228   8.944  0.00  0.00    +0.000 A 
ATOM     12  C   UNL     1      27.308  -2.443   9.480  0.00  0.00    +0.000 A 
ATOM     13  C   UNL     1      27.448  -0.912   7.617  0.00  0.00    +0.000 A 
ATOM     15  C   UNL     1      26.594  -3.342   8.689  0.00  0.00    +0.000 A 
ATOM     16  C   UNL     1      26.734  -1.811   6.825  0.00  0.00    +0.000 A 
ATOM     17  C   UNL     1      26.307  -3.026   7.361  0.00  0.00    +0.000 A 
BRANCH  17   7
ATOM      7  N   UNL     1      25.586  -3.935   6.559  0.00  0.00    +0.000 N 
ATOM     20  H   UNL     1      25.699  -3.925   5.555  0.00  0.00    +0.000 HD
ATOM     21  H   UNL     1      24.954  -4.598   6.989  0.00  0.00    +0.000 HD
ENDBRANCH  17   7
ENDBRANCH   1   8
TORSDOF 3
ENDMDL
MODEL 2
REMARK VINA RESULT:      -7.1      1.360      2.144
REMARK  Name = 31771
REMARK  5 active torsions:
REMARK  status: ('A' for Active; 'I' for Inactive)
REMARK    1  A    between atoms: S_1  and  N_5
REMARK    2  A    between atoms: S_1  and  C_8
REMARK    3  A    between atoms: N_7  and  C_17
REMARK    4  A    between atoms: C_10  and  C_14
REMARK    5  A    between atoms: C_11  and  C_18
REMARK                            x       y       z     vdW  Elec       q    Type
REMARK                         _______ _______ _______ _____ _____    ______ ____
ROOT
ATOM      1  S   UNL     1      28.833   0.302   9.394  0.00  0.00    +0.000 S 
ATOM      3  O   UNL     1      27.904   1.207  10.059  0.00  0.00    +0.000 OA
ATOM      4  O   UNL     1      29.768   0.847   8.418  0.00  0.00    +0.000 OA
ENDROOT
BRANCH   1   5
ATOM      2  O   UNL     1      32.928  -1.178   9.340  0.00  0.00    +0.000 OA
ATOM      5  N   UNL     1      29.704  -0.559  10.607  0.00  0.00    +0.000 N 
ATOM      6  N   UNL     1      31.738  -0.460   9.331  0.00  0.00    +0.000 NA
ATOM      9  C   UNL     1      31.029  -1.019  10.290  0.00  0.00    +0.000 A 
ATOM     10  C   UNL     1      31.659  -2.066  10.944  0.00  0.00    +0.000 A 
ATOM     11  C   UNL     1      32.868  -2.131  10.304  0.00  0.00    +0.000 A 
ATOM     14  C   UNL     1      31.178  -2.913  12.048  0.00  0.00    +0.000 C 
ATOM     18  C   UNL     1      34.053  -2.989  10.447  0.00  0.00    +0.000 C 
ATOM     19  H   UNL     1      29.184  -1.077  11.326  0.00  0.00    +0.000 HD
ENDBRANCH   1   5
BRANCH   1   8
ATOM      8  C   UNL     1      27.895  -0.956   8.626  0.00  0.00    +0.000 A 
ATOM     12  C   UNL     1      27.498  -0.816   7.297  0.00  0.00    +0.000 A 
ATOM     13  C   UNL     1      27.542  -2.098   9.343  0.00  0.00    +0.000 A 
ATOM     15  C   UNL     1      26.747  -1.819   6.683  0.00  0.00    +0.000 A 
ATOM     16  C   UNL     1      26.791  -3.101   8.730  0.00  0.00    +0.000 A 
ATOM     17  C   UNL     1      26.394  -2.962   7.400  0.00  0.00    +0.000 A 
BRANCH  17   7
ATOM      7  N   UNL     1      25.635  -3.976   6.781  0.00  0.00    +0.000 N 
ATOM     20  H   UNL     1      24.812  -3.738   6.244  0.00  0.00    +0.000 HD
ATOM     21  H   UNL     1      25.914  -4.944   6.873  0.00  0.00    +0.000 HD
ENDBRANCH  17   7
ENDBRANCH   1   8
TORSDOF 3
ENDMDL
MODEL 3
REMARK VINA RESULT:      -6.4      3.180      3.993
REMARK  Name = 31771
REMARK  5 active torsions:
REMARK  status: ('A' for Active; 'I' for Inactive)
REMARK    1  A    between atoms: S_1  and  N_5
REMARK    2  A    between atoms: S_1  and  C_8
REMARK    3  A    between atoms: N_7  and  C_17
REMARK    4  A    between atoms: C_10  and  C_14
REMARK    5  A    between atoms: C_11  and  C_18
REMARK                            x       y       z     vdW  Elec       q    Type
REMARK                         _______ _______ _______ _____ _____    ______ ____
ROOT
ATOM      1  S   UNL     1      30.820  -1.796  11.355  0.00  0.00    +0.000 S 
ATOM      3  O   UNL     1      30.242  -1.602  12.679  0.00  0.00    +0.000 OA
ATOM      4  O   UNL     1      32.026  -1.059  11.000  0.00  0.00    +0.000 OA
ENDROOT
BRANCH   1   5
ATOM      2  O   UNL     1      33.162  -4.572  13.756  0.00  0.00    +0.000 OA
ATOM      5  N   UNL     1      31.088  -3.483  11.129  0.00  0.00    +0.000 N 
ATOM      6  N   UNL     1      32.265  -3.657  13.217  0.00  0.00    +0.000 NA
ATOM      9  C   UNL     1      31.993  -4.150  12.026  0.00  0.00    +0.000 A 
ATOM     10  C   UNL     1      32.645  -5.335  11.725  0.00  0.00    +0.000 A 
ATOM     11  C   UNL     1      33.379  -5.566  12.857  0.00  0.00    +0.000 A 
ATOM     14  C   UNL     1      32.586  -6.159  10.506  0.00  0.00    +0.000 C 
ATOM     18  C   UNL     1      34.312  -6.625  13.270  0.00  0.00    +0.000 C 
ATOM     19  H   UNL     1      30.965  -3.891  10.194  0.00  0.00    +0.000 HD
ENDBRANCH   1   5
BRANCH   1   8
ATOM      8  C   UNL     1      29.581  -1.440  10.176  0.00  0.00    +0.000 A 
ATOM     12  C   UNL     1      28.511  -2.318  10.003  0.00  0.00    +0.000 A 
ATOM     13  C   UNL     1      29.662  -0.280   9.406  0.00  0.00    +0.000 A 
ATOM     15  C   UNL     1      27.522  -2.036   9.061  0.00  0.00    +0.000 A 
ATOM     16  C   UNL     1      28.673   0.002   8.464  0.00  0.00    +0.000 A 
ATOM     17  C   UNL     1      27.603  -0.876   8.292  0.00  0.00    +0.000 A 
BRANCH  17   7
ATOM      7  N   UNL     1      26.603  -0.589   7.339  0.00  0.00    +0.000 N 
ATOM     20  H   UNL     1      26.032  -1.335   6.965  0.00  0.00    +0.000 HD
ATOM     21  H   UNL     1      26.457   0.363   7.030  0.00  0.00    +0.000 HD
ENDBRANCH  17   7
ENDBRANCH   1   8
TORSDOF 3
ENDMDL
MODEL 4
REMARK VINA RESULT:      -6.4      3.355      6.416
REMARK  Name = 31771
REMARK  5 active torsions:
REMARK  status: ('A' for Active; 'I' for Inactive)
REMARK    1  A    between atoms: S_1  and  N_5
REMARK    2  A    between atoms: S_1  and  C_8
REMARK    3  A    between atoms: N_7  and  C_17
REMARK    4  A    between atoms: C_10  and  C_14
REMARK    5  A    between atoms: C_11  and  C_18
REMARK                            x       y       z     vdW  Elec       q    Type
REMARK                         _______ _______ _______ _____ _____    ______ ____
ROOT
ATOM      1  S   UNL     1      30.935  -2.164  11.585  0.00  0.00    +0.000 S 
ATOM      3  O   UNL     1      31.988  -1.413  10.913  0.00  0.00    +0.000 OA
ATOM      4  O   UNL     1      30.171  -1.514  12.642  0.00  0.00    +0.000 OA
ENDROOT
BRANCH   1   5
ATOM      2  O   UNL     1      28.525   0.013   8.684  0.00  0.00    +0.000 OA
ATOM      5  N   UNL     1      29.857  -2.767  10.383  0.00  0.00    +0.000 N 
ATOM      6  N   UNL     1      29.506  -0.567   9.480  0.00  0.00    +0.000 NA
ATOM      9  C   UNL     1      29.104  -1.815   9.611  0.00  0.00    +0.000 A 
ATOM     10  C   UNL     1      27.919  -2.115   8.959  0.00  0.00    +0.000 A 
ATOM     11  C   UNL     1      27.587  -0.918   8.381  0.00  0.00    +0.000 A 
ATOM     14  C   UNL     1      27.179  -3.386   8.887  0.00  0.00    +0.000 C 
ATOM     18  C   UNL     1      26.468  -0.467   7.542  0.00  0.00    +0.000 C 
ATOM     19  H   UNL     1      29.457  -3.707  10.492  0.00  0.00    +0.000 HD
ENDBRANCH   1   5
BRANCH   1   8
ATOM      8  C   UNL     1      31.650  -3.622  12.228  0.00  0.00    +0.000 A 
ATOM     12  C   UNL     1      31.796  -3.777  13.607  0.00  0.00    +0.000 A 
ATOM     13  C   UNL     1      32.075  -4.631  11.364  0.00  0.00    +0.000 A 
ATOM     15  C   UNL     1      32.367  -4.940  14.122  0.00  0.00    +0.000 A 
ATOM     16  C   UNL     1      32.647  -5.794  11.879  0.00  0.00    +0.000 A 
ATOM     17  C   UNL     1      32.793  -5.949  13.258  0.00  0.00    +0.000 A 
BRANCH  17   7
ATOM      7  N   UNL     1      33.371  -7.126  13.777  0.00  0.00    +0.000 N 
ATOM     20  H   UNL     1      34.353  -7.316  13.628  0.00  0.00    +0.000 HD
ATOM     21  H   UNL     1      32.804  -7.781  14.299  0.00  0.00    +0.000 HD
ENDBRANCH  17   7
ENDBRANCH   1   8
TORSDOF 3
ENDMDL
MODEL 5
REMARK VINA RESULT:      -6.1      2.435      3.060
REMARK  Name = 31771
REMARK  5 active torsions:
REMARK  status: ('A' for Active; 'I' for Inactive)
REMARK    1  A    between atoms: S_1  and  N_5
REMARK    2  A    between atoms: S_1  and  C_8
REMARK    3  A    between atoms: N_7  and  C_17
REMARK    4  A    between atoms: C_10  and  C_14
REMARK    5  A    between atoms: C_11  and  C_18
REMARK                            x       y       z     vdW  Elec       q    Type
REMARK                         _______ _______ _______ _____ _____    ______ ____
ROOT
ATOM      1  S   UNL     1      30.699  -2.094  11.229  0.00  0.00    +0.000 S 
ATOM      3  O   UNL     1      30.986  -3.506  11.007  0.00  0.00    +0.000 OA
ATOM      4  O   UNL     1      30.301  -1.660  12.563  0.00  0.00    +0.000 OA
ENDROOT
BRANCH   1   5
ATOM      2  O   UNL     1      34.578  -1.581  13.140  0.00  0.00    +0.000 OA
ATOM      5  N   UNL     1      32.064  -1.181  10.709  0.00  0.00    +0.000 N 
ATOM      6  N   UNL     1      33.409  -2.009  12.520  0.00  0.00    +0.000 NA
ATOM      9  C   UNL     1      33.200  -1.102  11.588  0.00  0.00    +0.000 A 
ATOM     10  C   UNL     1      34.147  -0.092  11.538  0.00  0.00    +0.000 A 
ATOM     11  C   UNL     1      35.006  -0.439  12.546  0.00  0.00    +0.000 A 
ATOM     14  C   UNL     1      34.234   1.073  10.641  0.00  0.00    +0.000 C 
ATOM     18  C   UNL     1      36.238   0.154  13.085  0.00  0.00    +0.000 C 
ATOM     19  H   UNL     1      31.929  -0.410  10.044  0.00  0.00    +0.000 HD
ENDBRANCH   1   5
BRANCH   1   8
ATOM      8  C   UNL     1      29.460  -1.618  10.094  0.00  0.00    +0.000 A 
ATOM     12  C   UNL     1      28.377  -2.463   9.849  0.00  0.00    +0.000 A 
ATOM     13  C   UNL     1      29.554  -0.394   9.432  0.00  0.00    +0.000 A 
ATOM     15  C   UNL     1      27.388  -2.084   8.941  0.00  0.00    +0.000 A 
ATOM     16  C   UNL     1      28.565  -0.015   8.525  0.00  0.00    +0.000 A 
ATOM     17  C   UNL     1      27.482  -0.860   8.279  0.00  0.00    +0.000 A 
BRANCH  17   7
ATOM      7  N   UNL     1      26.482  -0.476   7.362  0.00  0.00    +0.000 N 
ATOM     20  H   UNL     1      25.628  -1.012   7.289  0.00  0.00    +0.000 HD
ATOM     21  H   UNL     1      26.619   0.337   6.775  0.00  0.00    +0.000 HD
ENDBRANCH  17   7
ENDBRANCH   1   8
TORSDOF 3
ENDMDL
MODEL 6
REMARK VINA RESULT:      -6.0      4.475      5.526
REMARK  Name = 31771
REMARK  5 active torsions:
REMARK  status: ('A' for Active; 'I' for Inactive)
REMARK    1  A    between atoms: S_1  and  N_5
REMARK    2  A    between atoms: S_1  and  C_8
REMARK    3  A    between atoms: N_7  and  C_17
REMARK    4  A    between atoms: C_10  and  C_14
REMARK    5  A    between atoms: C_11  and  C_18
REMARK                            x       y       z     vdW  Elec       q    Type
REMARK                         _______ _______ _______ _____ _____    ______ ____
ROOT
ATOM      1  S   UNL     1      31.968  -2.162  12.431  0.00  0.00    +0.000 S 
ATOM      3  O   UNL     1      31.743  -1.139  13.444  0.00  0.00    +0.000 OA
ATOM      4  O   UNL     1      33.139  -2.052  11.570  0.00  0.00    +0.000 OA
ENDROOT
BRANCH   1   5
ATOM      2  O   UNL     1      33.798  -3.355  16.197  0.00  0.00    +0.000 OA
ATOM      5  N   UNL     1      31.968  -3.698  13.211  0.00  0.00    +0.000 N 
ATOM      6  N   UNL     1      33.068  -2.803  15.151  0.00  0.00    +0.000 NA
ATOM      9  C   UNL     1      32.741  -3.845  14.415  0.00  0.00    +0.000 A 
ATOM     10  C   UNL     1      33.201  -5.062  14.894  0.00  0.00    +0.000 A 
ATOM     11  C   UNL     1      33.869  -4.700  16.032  0.00  0.00    +0.000 A 
ATOM     14  C   UNL     1      33.031  -6.416  14.341  0.00  0.00    +0.000 C 
ATOM     18  C   UNL     1      34.614  -5.444  17.058  0.00  0.00    +0.000 C 
ATOM     19  H   UNL     1      31.797  -4.544  12.654  0.00  0.00    +0.000 HD
ENDBRANCH   1   5
BRANCH   1   8
ATOM      8  C   UNL     1      30.542  -2.238  11.426  0.00  0.00    +0.000 A 
ATOM     12  C   UNL     1      29.458  -1.400  11.688  0.00  0.00    +0.000 A 
ATOM     13  C   UNL     1      30.486  -3.138  10.362  0.00  0.00    +0.000 A 
ATOM     15  C   UNL     1      28.318  -1.462  10.887  0.00  0.00    +0.000 A 
ATOM     16  C   UNL     1      29.346  -3.200   9.560  0.00  0.00    +0.000 A 
ATOM     17  C   UNL     1      28.262  -2.362   9.823  0.00  0.00    +0.000 A 
BRANCH  17   7
ATOM      7  N   UNL     1      27.110  -2.425   9.012  0.00  0.00    +0.000 N 
ATOM     20  H   UNL     1      26.292  -1.881   9.252  0.00  0.00    +0.000 HD
ATOM     21  H   UNL     1      27.101  -3.013   8.190  0.00  0.00    +0.000 HD
ENDBRANCH  17   7
ENDBRANCH   1   8
TORSDOF 3
ENDMDL
MODEL 7
REMARK VINA RESULT:      -6.0     20.343     22.209
REMARK  Name = 31771
REMARK  5 active torsions:
REMARK  status: ('A' for Active; 'I' for Inactive)
REMARK    1  A    between atoms: S_1  and  N_5
REMARK    2  A    between atoms: S_1  and  C_8
REMARK    3  A    between atoms: N_7  and  C_17
REMARK    4  A    between atoms: C_10  and  C_14
REMARK    5  A    between atoms: C_11  and  C_18
REMARK                            x       y       z     vdW  Elec       q    Type
REMARK                         _______ _______ _______ _____ _____    ______ ____
ROOT
ATOM      1  S   UNL     1      15.357  -8.450  22.609  0.00  0.00    +0.000 S 
ATOM      3  O   UNL     1      15.536  -7.024  22.847  0.00  0.00    +0.000 OA
ATOM      4  O   UNL     1      14.495  -8.877  21.514  0.00  0.00    +0.000 OA
ENDROOT
BRANCH   1   5
ATOM      2  O   UNL     1      16.444 -12.631  22.060  0.00  0.00    +0.000 OA
ATOM      5  N   UNL     1      16.916  -9.163  22.427  0.00  0.00    +0.000 N 
ATOM      6  N   UNL     1      15.965 -11.327  21.998  0.00  0.00    +0.000 NA
ATOM      9  C   UNL     1      17.000 -10.597  22.357  0.00  0.00    +0.000 A 
ATOM     10  C   UNL     1      18.144 -11.318  22.658  0.00  0.00    +0.000 A 
ATOM     11  C   UNL     1      17.742 -12.611  22.454  0.00  0.00    +0.000 A 
ATOM     14  C   UNL     1      19.469 -10.845  23.091  0.00  0.00    +0.000 C 
ATOM     18  C   UNL     1      18.406 -13.917  22.575  0.00  0.00    +0.000 C 
ATOM     19  H   UNL     1      17.742  -8.658  22.770  0.00  0.00    +0.000 HD
ENDBRANCH   1   5
BRANCH   1   8
ATOM      8  C   UNL     1      14.776  -9.168  24.091  0.00  0.00    +0.000 A 
ATOM     12  C   UNL     1      13.642  -9.982  24.074  0.00  0.00    +0.000 A 
ATOM     13  C   UNL     1      15.443  -8.928  25.292  0.00  0.00    +0.000 A 
ATOM     15  C   UNL     1      13.176 -10.555  25.257  0.00  0.00    +0.000 A 
ATOM     16  C   UNL     1      14.977  -9.501  26.475  0.00  0.00    +0.000 A 
ATOM     17  C   UNL     1      13.844 -10.314  26.457  0.00  0.00    +0.000 A 
BRANCH  17   7
ATOM      7  N   UNL     1      13.373 -10.893  27.654  0.00  0.00    +0.000 N 
ATOM     20  H   UNL     1      12.826 -11.743  27.625  0.00  0.00    +0.000 HD
ATOM     21  H   UNL     1      13.583 -10.459  28.544  0.00  0.00    +0.000 HD
ENDBRANCH  17   7
ENDBRANCH   1   8
TORSDOF 3
ENDMDL
MODEL 8
REMARK VINA RESULT:      -5.9      3.773      4.834
REMARK  Name = 31771
REMARK  5 active torsions:
REMARK  status: ('A' for Active; 'I' for Inactive)
REMARK    1  A    between atoms: S_1  and  N_5
REMARK    2  A    between atoms: S_1  and  C_8
REMARK    3  A    between atoms: N_7  and  C_17
REMARK    4  A    between atoms: C_10  and  C_14
REMARK    5  A    between atoms: C_11  and  C_18
REMARK                            x       y       z     vdW  Elec       q    Type
REMARK                         _______ _______ _______ _____ _____    ______ ____
ROOT
ATOM      1  S   UNL     1      31.889  -2.273  12.195  0.00  0.00    +0.000 S 
ATOM      3  O   UNL     1      32.415  -3.466  11.546  0.00  0.00    +0.000 OA
ATOM      4  O   UNL     1      31.270  -2.402  13.509  0.00  0.00    +0.000 OA
ENDROOT
BRANCH   1   5
ATOM      2  O   UNL     1      33.849  -0.520  15.666  0.00  0.00    +0.000 OA
ATOM      5  N   UNL     1      33.149  -1.101  12.266  0.00  0.00    +0.000 N 
ATOM      6  N   UNL     1      33.325  -1.315  14.653  0.00  0.00    +0.000 NA
ATOM      9  C   UNL     1      33.552  -0.617  13.559  0.00  0.00    +0.000 A 
ATOM     10  C   UNL     1      34.192   0.595  13.766  0.00  0.00    +0.000 A 
ATOM     11  C   UNL     1      34.362   0.613  15.124  0.00  0.00    +0.000 A 
ATOM     14  C   UNL     1      34.599   1.622  12.793  0.00  0.00    +0.000 C 
ATOM     18  C   UNL     1      34.958   1.573  16.064  0.00  0.00    +0.000 C 
ATOM     19  H   UNL     1      33.305  -0.480  11.462  0.00  0.00    +0.000 HD
ENDBRANCH   1   5
BRANCH   1   8
ATOM      8  C   UNL     1      30.738  -1.538  11.106  0.00  0.00    +0.000 A 
ATOM     12  C   UNL     1      29.370  -1.668  11.345  0.00  0.00    +0.000 A 
ATOM     13  C   UNL     1      31.187  -0.822   9.997  0.00  0.00    +0.000 A 
ATOM     15  C   UNL     1      28.451  -1.082  10.475  0.00  0.00    +0.000 A 
ATOM     16  C   UNL     1      30.268  -0.236   9.127  0.00  0.00    +0.000 A 
ATOM     17  C   UNL     1      28.900  -0.366   9.366  0.00  0.00    +0.000 A 
BRANCH  17   7
ATOM      7  N   UNL     1      27.971   0.226   8.486  0.00  0.00    +0.000 N 
ATOM     20  H   UNL     1      27.194  -0.315   8.129  0.00  0.00    +0.000 HD
ATOM     21  H   UNL     1      28.080   1.193   8.210  0.00  0.00    +0.000 HD
ENDBRANCH  17   7
ENDBRANCH   1   8
TORSDOF 3
ENDMDL
MODEL 9
REMARK VINA RESULT:      -5.8      4.932      6.073
REMARK  Name = 31771
REMARK  5 active torsions:
REMARK  status: ('A' for Active; 'I' for Inactive)
REMARK    1  A    between atoms: S_1  and  N_5
REMARK    2  A    between atoms: S_1  and  C_8
REMARK    3  A    between atoms: N_7  and  C_17
REMARK    4  A    between atoms: C_10  and  C_14
REMARK    5  A    between atoms: C_11  and  C_18
REMARK                            x       y       z     vdW  Elec       q    Type
REMARK                         _______ _______ _______ _____ _____    ______ ____
ROOT
ATOM      1  S   UNL     1      32.738  -2.872  13.586  0.00  0.00    +0.000 S 
ATOM      3  O   UNL     1      33.783  -3.752  13.077  0.00  0.00    +0.000 OA
ATOM      4  O   UNL     1      32.070  -3.221  14.833  0.00  0.00    +0.000 OA
ENDROOT
BRANCH   1   5
ATOM      2  O   UNL     1      35.056  -1.068  16.800  0.00  0.00    +0.000 OA
ATOM      5  N   UNL     1      33.390  -1.282  13.707  0.00  0.00    +0.000 N 
ATOM      6  N   UNL     1      34.527  -1.817  15.756  0.00  0.00    +0.000 NA
ATOM      9  C   UNL     1      34.040  -0.909  14.935  0.00  0.00    +0.000 A 
ATOM     10  C   UNL     1      34.204   0.401  15.355  0.00  0.00    +0.000 A 
ATOM     11  C   UNL     1      34.857   0.251  16.549  0.00  0.00    +0.000 A 
ATOM     14  C   UNL     1      33.792   1.657  14.706  0.00  0.00    +0.000 C 
ATOM     18  C   UNL     1      35.358   1.190  17.563  0.00  0.00    +0.000 C 
ATOM     19  H   UNL     1      32.982  -0.527  13.142  0.00  0.00    +0.000 HD
ENDBRANCH   1   5
BRANCH   1   8
ATOM      8  C   UNL     1      31.531  -2.700  12.335  0.00  0.00    +0.000 A 
ATOM     12  C   UNL     1      31.560  -3.537  11.219  0.00  0.00    +0.000 A 
ATOM     13  C   UNL     1      30.540  -1.727  12.451  0.00  0.00    +0.000 A 
ATOM     15  C   UNL     1      30.598  -3.400  10.219  0.00  0.00    +0.000 A 
ATOM     16  C   UNL     1      29.577  -1.589  11.451  0.00  0.00    +0.000 A 
ATOM     17  C   UNL     1      29.606  -2.426  10.335  0.00  0.00    +0.000 A 
BRANCH  17   7
ATOM      7  N   UNL     1      28.632  -2.286   9.325  0.00  0.00    +0.000 N 
ATOM     20  H   UNL     1      27.775  -2.820   9.371  0.00  0.00    +0.000 HD
ATOM     21  H   UNL     1      28.790  -1.652   8.553  0.00  0.00    +0.000 HD
ENDBRANCH  17   7
ENDBRANCH   1   8
TORSDOF 3
ENDMDL
MODEL 10
REMARK VINA RESULT:      -5.8     18.807     20.526
REMARK  Name = 31771
REMARK  5 active torsions:
REMARK  status: ('A' for Active; 'I' for Inactive)
REMARK    1  A    between atoms: S_1  and  N_5
REMARK    2  A    between atoms: S_1  and  C_8
REMARK    3  A    between atoms: N_7  and  C_17
REMARK    4  A    between atoms: C_10  and  C_14
REMARK    5  A    between atoms: C_11  and  C_18
REMARK                            x       y       z     vdW  Elec       q    Type
REMARK                         _______ _______ _______ _____ _____    ______ ____
ROOT
ATOM      1  S   UNL     1      16.529  -8.808  22.275  0.00  0.00    +0.000 S 
ATOM      3  O   UNL     1      16.975  -7.447  22.543  0.00  0.00    +0.000 OA
ATOM      4  O   UNL     1      15.936  -9.111  20.978  0.00  0.00    +0.000 OA
ENDROOT
BRANCH   1   5
ATOM      2  O   UNL     1      20.421  -8.980  20.330  0.00  0.00    +0.000 OA
ATOM      5  N   UNL     1      17.853  -9.873  22.565  0.00  0.00    +0.000 N 
ATOM      6  N   UNL     1      19.258  -8.675  21.026  0.00  0.00    +0.000 NA
ATOM      9  C   UNL     1      19.001  -9.775  21.703  0.00  0.00    +0.000 A 
ATOM     10  C   UNL     1      19.911 -10.802  21.511  0.00  0.00    +0.000 A 
ATOM     11  C   UNL     1      20.800 -10.249  20.628  0.00  0.00    +0.000 A 
ATOM     14  C   UNL     1      19.942 -12.154  22.093  0.00  0.00    +0.000 C 
ATOM     18  C   UNL     1      22.020 -10.737  19.969  0.00  0.00    +0.000 C 
ATOM     19  H   UNL     1      17.680 -10.778  23.018  0.00  0.00    +0.000 HD
ENDBRANCH   1   5
BRANCH   1   8
ATOM      8  C   UNL     1      15.394  -9.253  23.526  0.00  0.00    +0.000 A 
ATOM     12  C   UNL     1      15.370  -8.547  24.728  0.00  0.00    +0.000 A 
ATOM     13  C   UNL     1      14.513 -10.315  23.323  0.00  0.00    +0.000 A 
ATOM     15  C   UNL     1      14.465  -8.902  25.728  0.00  0.00    +0.000 A 
ATOM     16  C   UNL     1      13.608 -10.670  24.323  0.00  0.00    +0.000 A 
ATOM     17  C   UNL     1      13.584  -9.964  25.525  0.00  0.00    +0.000 A 
BRANCH  17   7
ATOM      7  N   UNL     1      12.669 -10.324  26.536  0.00  0.00    +0.000 N 
ATOM     20  H   UNL     1      12.703  -9.866  27.437  0.00  0.00    +0.000 HD
ATOM     21  H   UNL     1      11.976 -11.040  26.360  0.00  0.00    +0.000 HD
ENDBRANCH  17   7
ENDBRANCH   1   8
TORSDOF 3
ENDMDL
