REMARK  Name = 31771
REMARK  5 active torsions:
REMARK  status: ('A' for Active; 'I' for Inactive)
REMARK    1  A    between atoms: S_1  and  N_5
REMARK    2  A    between atoms: S_1  and  C_8
REMARK    3  A    between atoms: N_7  and  C_17
REMARK    4  A    between atoms: C_10  and  C_14
REMARK    5  A    between atoms: C_11  and  C_18
REMARK                            x       y       z     vdW  Elec       q    Type
REMARK                         _______ _______ _______ _____ _____    ______ ____
ROOT
ATOM      1  S   UNL     1      -0.295  -1.230   0.062  0.00  0.00    +0.000 S 
ATOM      3  O   UNL     1      -0.318  -2.316  -0.910  0.00  0.00    +0.000 OA
ATOM      4  O   UNL     1       0.074  -1.528   1.440  0.00  0.00    +0.000 OA
ENDROOT
BRANCH   1   5
ATOM      2  O   UNL     1       4.035  -0.834   0.290  0.00  0.00    +0.000 OA
ATOM      5  N   UNL     1       0.725   0.016  -0.551  0.00  0.00    +0.000 N 
ATOM      6  N   UNL     1       2.708  -1.188   0.076  0.00  0.00    +0.000 NA
ATOM      9  C   UNL     1       2.130  -0.050  -0.249  0.00  0.00    +0.000 A 
ATOM     10  C   UNL     1       2.976   1.047  -0.268  0.00  0.00    +0.000 A 
ATOM     11  C   UNL     1       4.181   0.499   0.082  0.00  0.00    +0.000 A 
ATOM     14  C   UNL     1       2.684   2.456  -0.580  0.00  0.00    +0.000 C 
ATOM     18  C   UNL     1       5.533   1.044   0.270  0.00  0.00    +0.000 C 
ATOM     19  H   UNL     1       0.327   0.944  -0.740  0.00  0.00    +0.000 HD
ENDBRANCH   1   5
BRANCH   1   8
ATOM      8  C   UNL     1      -1.871  -0.477   0.056  0.00  0.00    +0.000 A 
ATOM     12  C   UNL     1      -2.687  -0.577  -1.071  0.00  0.00    +0.000 A 
ATOM     13  C   UNL     1      -2.313   0.225   1.177  0.00  0.00    +0.000 A 
ATOM     15  C   UNL     1      -3.945   0.025  -1.077  0.00  0.00    +0.000 A 
ATOM     16  C   UNL     1      -3.571   0.827   1.171  0.00  0.00    +0.000 A 
ATOM     17  C   UNL     1      -4.387   0.727   0.044  0.00  0.00    +0.000 A 
BRANCH  17   7
ATOM      7  N   UNL     1      -5.659   1.336   0.039  0.00  0.00    +0.000 N 
ATOM     20  H   UNL     1      -6.252   1.264  -0.777  0.00  0.00    +0.000 HD
ATOM     21  H   UNL     1      -5.980   1.845   0.852  0.00  0.00    +0.000 HD
ENDBRANCH  17   7
ENDBRANCH   1   8
TORSDOF 3
