REMARK  Name = 694829
REMARK  5 active torsions:
REMARK  status: ('A' for Active; 'I' for Inactive)
REMARK    1  A    between atoms: S_1  and  N_6
REMARK    2  A    between atoms: S_1  and  C_8
REMARK    3  A    between atoms: O_5  and  C_14
REMARK    4  A    between atoms: O_5  and  C_18
REMARK    5  A    between atoms: C_16  and  C_17
REMARK                            x       y       z     vdW  Elec       q    Type
REMARK                         _______ _______ _______ _____ _____    ______ ____
ROOT
ATOM      1  S   UNL     1      -0.293   1.132   0.173  0.00  0.00    +0.000 S 
ATOM      2  O   UNL     1      -0.308   2.291  -0.713  0.00  0.00    +0.000 OA
ATOM      3  O   UNL     1      -0.737   1.296   1.552  0.00  0.00    +0.000 OA
ENDROOT
BRANCH   1   6
ATOM      4  O   UNL     1      -4.594   0.416   0.165  0.00  0.00    +0.000 OA
ATOM      6  N   UNL     1      -1.197  -0.127  -0.578  0.00  0.00    +0.000 N 
ATOM      7  N   UNL     1      -3.291   0.883   0.043  0.00  0.00    +0.000 NA
ATOM     11  C   UNL     1      -2.614  -0.181  -0.336  0.00  0.00    +0.000 A 
ATOM     15  C   UNL     1      -3.370  -1.333  -0.480  0.00  0.00    +0.000 A 
ATOM     16  C   UNL     1      -4.628  -0.905  -0.149  0.00  0.00    +0.000 A 
ATOM     17  C   UNL     1      -5.938  -1.564  -0.074  0.00  0.00    +0.000 C 
ATOM     19  H   UNL     1      -0.729  -1.011  -0.815  0.00  0.00    +0.000 HD
ENDBRANCH   1   6
BRANCH   1   8
ATOM      8  C   UNL     1       1.331   0.491   0.181  0.00  0.00    +0.000 A 
ATOM      9  C   UNL     1       2.182   0.734  -0.896  0.00  0.00    +0.000 A 
ATOM     10  C   UNL     1       1.777  -0.265   1.266  0.00  0.00    +0.000 A 
ATOM     12  C   UNL     1       3.480   0.221  -0.890  0.00  0.00    +0.000 A 
ATOM     13  C   UNL     1       3.074  -0.777   1.273  0.00  0.00    +0.000 A 
ATOM     14  C   UNL     1       3.926  -0.534   0.195  0.00  0.00    +0.000 A 
BRANCH  14   5
ATOM      5  O   UNL     1       5.192  -1.033   0.201  0.00  0.00    +0.000 OA
ATOM     18  C   UNL     1       6.009  -0.746  -0.932  0.00  0.00    +0.000 C 
ENDBRANCH  14   5
ENDBRANCH   1   8
TORSDOF 3
