694829
  -OEChem-05112508143D

 30 31  0     0  0  0  0  0  0999 V2000
   -0.2930    1.1324    0.1728 S   0  0  0  0  0  0  0  0  0  0  0  0
   -0.3083    2.2907   -0.7126 O   0  0  0  0  0  0  0  0  0  0  0  0
   -0.7371    1.2963    1.5516 O   0  0  0  0  0  0  0  0  0  0  0  0
   -4.5944    0.4157    0.1647 O   0  0  0  0  0  0  0  0  0  0  0  0
    5.1918   -1.0334    0.2014 O   0  0  0  0  0  0  0  0  0  0  0  0
   -1.1972   -0.1272   -0.5782 N   0  0  0  0  0  0  0  0  0  0  0  0
   -3.2912    0.8827    0.0435 N   0  0  0  0  0  0  0  0  0  0  0  0
    1.3310    0.4909    0.1814 C   0  0  0  0  0  0  0  0  0  0  0  0
    2.1823    0.7338   -0.8964 C   0  0  0  0  0  0  0  0  0  0  0  0
    1.7769   -0.2645    1.2659 C   0  0  0  0  0  0  0  0  0  0  0  0
   -2.6139   -0.1806   -0.3363 C   0  0  0  0  0  0  0  0  0  0  0  0
    3.4797    0.2213   -0.8899 C   0  0  0  0  0  0  0  0  0  0  0  0
    3.0743   -0.7769    1.2726 C   0  0  0  0  0  0  0  0  0  0  0  0
    3.9256   -0.5340    0.1946 C   0  0  0  0  0  0  0  0  0  0  0  0
   -3.3697   -1.3325   -0.4796 C   0  0  0  0  0  0  0  0  0  0  0  0
   -4.6283   -0.9047   -0.1493 C   0  0  0  0  0  0  0  0  0  0  0  0
   -5.9378   -1.5638   -0.0739 C   0  0  0  0  0  0  0  0  0  0  0  0
    6.0091   -0.7462   -0.9323 C   0  0  0  0  0  0  0  0  0  0  0  0
   -0.7289   -1.0112   -0.8147 H   0  0  0  0  0  0  0  0  0  0  0  0
    1.8534    1.3133   -1.7545 H   0  0  0  0  0  0  0  0  0  0  0  0
    1.1279   -0.4711    2.1123 H   0  0  0  0  0  0  0  0  0  0  0  0
    4.0874    0.4465   -1.7597 H   0  0  0  0  0  0  0  0  0  0  0  0
    3.4159   -1.3657    2.1194 H   0  0  0  0  0  0  0  0  0  0  0  0
   -3.0695   -2.3271   -0.7748 H   0  0  0  0  0  0  0  0  0  0  0  0
   -5.8638   -2.6219   -0.3436 H   0  0  0  0  0  0  0  0  0  0  0  0
   -6.3427   -1.5004    0.9409 H   0  0  0  0  0  0  0  0  0  0  0  0
   -6.6478   -1.0887   -0.7579 H   0  0  0  0  0  0  0  0  0  0  0  0
    5.5982   -1.1873   -1.8467 H   0  0  0  0  0  0  0  0  0  0  0  0
    6.9811   -1.2193   -0.7582 H   0  0  0  0  0  0  0  0  0  0  0  0
    6.1909    0.3290   -1.0354 H   0  0  0  0  0  0  0  0  0  0  0  0
  1  2  2  0  0  0  0
  1  3  2  0  0  0  0
  1  6  1  0  0  0  0
  1  8  1  0  0  0  0
  4  7  1  0  0  0  0
  4 16  1  0  0  0  0
  5 14  1  0  0  0  0
  5 18  1  0  0  0  0
  6 11  1  0  0  0  0
  6 19  1  0  0  0  0
  7 11  2  0  0  0  0
  8  9  2  0  0  0  0
  8 10  1  0  0  0  0
  9 12  1  0  0  0  0
  9 20  1  0  0  0  0
 10 13  2  0  0  0  0
 10 21  1  0  0  0  0
 11 15  1  0  0  0  0
 12 14  2  0  0  0  0
 12 22  1  0  0  0  0
 13 14  1  0  0  0  0
 13 23  1  0  0  0  0
 15 16  2  0  0  0  0
 15 24  1  0  0  0  0
 16 17  1  0  0  0  0
 17 25  1  0  0  0  0
 17 26  1  0  0  0  0
 17 27  1  0  0  0  0
 18 28  1  0  0  0  0
 18 29  1  0  0  0  0
 18 30  1  0  0  0  0
M  END
> <PUBCHEM_COMPOUND_CID>
694829

> <PUBCHEM_CONFORMER_RMSD>
0.6

> <PUBCHEM_CONFORMER_DIVERSEORDER>
11
9
8
21
10
30
31
15
4
18
20
2
25
14
1
33
32
3
17
19
5
6
13
28
23
35
26
24
34
7
22
29
27
16
12

> <PUBCHEM_MMFF94_PARTIAL_CHARGES>
24
1 1.45
10 -0.15
11 0.43
12 -0.15
13 -0.15
14 0.08
15 -0.15
16 -0.04
17 0.18
18 0.28
19 0.42
2 -0.65
20 0.15
21 0.15
22 0.15
23 0.15
24 0.15
3 -0.65
4 -0.02
5 -0.36
6 -0.7
7 -0.41
8 -0.01
9 -0.15

> <PUBCHEM_EFFECTIVE_ROTOR_COUNT>
4

> <PUBCHEM_PHARMACOPHORE_FEATURES>
7
1 2 acceptor
1 3 acceptor
1 5 acceptor
1 6 donor
1 7 acceptor
5 4 7 11 15 16 rings
6 8 9 10 12 13 14 rings

> <PUBCHEM_HEAVY_ATOM_COUNT>
18

> <PUBCHEM_ATOM_DEF_STEREO_COUNT>
0

> <PUBCHEM_ATOM_UDEF_STEREO_COUNT>
0

> <PUBCHEM_BOND_DEF_STEREO_COUNT>
0

> <PUBCHEM_BOND_UDEF_STEREO_COUNT>
0

> <PUBCHEM_ISOTOPIC_ATOM_COUNT>
0

> <PUBCHEM_COMPONENT_COUNT>
1

> <PUBCHEM_CACTVS_TAUTO_COUNT>
2

> <PUBCHEM_CONFORMER_ID>
000A9A2D0000000B

> <PUBCHEM_MMFF94_ENERGY>
30.554

> <PUBCHEM_FEATURE_SELFOVERLAP>
35.542

> <PUBCHEM_SHAPE_FINGERPRINT>
11046707 91 18412823568820163881
11128504 68 17822296794849508894
12236239 1 18333453123251768492
12251169 10 14261350271143892616
12507557 5 11167938078587765139
12553582 1 18335686261205965583
12596602 18 14548730737719174703
12633257 1 15123504830663772022
12714333 28 13334733539716236031
13288520 33 18412265012565467517
13675066 3 16988843895493408529
13685833 64 18201440315597995379
14123256 34 18410862096322749655
14252887 29 16415206671532563374
14341114 176 16774077388709352634
14386348 63 17418095416377537822
14576447 43 18040150704440833186
15188451 53 16558175142744582455
15238133 3 10807931592059794570
15501527 24 17821734931586129870
15527383 91 15339116849379063930
17804303 29 18272929449455485833
1798214 20 18113893866540860187
1813 80 18341058470613652869
18186145 218 15791448236169550277
18222031 100 18339629127320169687
193927 3 18341623637018020891
19784866 240 18410580586616450967
200 152 17821731611296984488
20645477 70 18187082883834692070
20871999 31 17821999888018549333
21150785 3 18409741656136524790
21267235 1 18409454704258995887
212847 35 8142094147626551470
21637258 2 18412535522501448407
221357 26 16298378067944929191
22854114 59 13686299075562036625
22950370 63 18408323276317559311
2297311 6 18202007607367480308
23035841 295 18410294692530193626
23402539 116 18114461176112940420
23402655 69 16877936092779488908
23557571 272 18059297539913803480
23559900 14 18201993356655793808
23622692 88 12823294598482090536
26918003 58 15626505007976690559
2767999 5 9151175337532609775
29717793 49 18407476665391544495
3004659 81 18187080667547151710
328317 168 13190342365768848466
33382 64 17846224298453879014
351380 180 8646769997418349214
351380 3 18408319994962934983
42 15 16917068875653688159
4325135 7 18272088340504051776
465052 167 18338523066221188895
5385378 56 17772768082986541547

> <PUBCHEM_SHAPE_MULTIPOLES>
340.84
12.78
1.51
1.11
2.6
0.4
-0.25
-7.44
2.15
0.8
0.07
-0.88
0.06
-0.43

> <PUBCHEM_SHAPE_SELFOVERLAP>
708.154

> <PUBCHEM_SHAPE_VOLUME>
195.8

> <PUBCHEM_COORDINATE_TYPE>
2
5
10

$$$$
