1181036
  -OEChem-05112508153D

 46 48  0     0  0  0  0  0  0999 V2000
    2.6647    1.2078    0.1047 S   0  0  0  0  0  0  0  0  0  0  0  0
   -3.8597   -0.3928    1.5143 O   0  0  0  0  0  0  0  0  0  0  0  0
    2.6963    2.0855    1.2688 O   0  0  0  0  0  0  0  0  0  0  0  0
    3.1646    1.7119   -1.1686 O   0  0  0  0  0  0  0  0  0  0  0  0
    6.9299    0.3047    0.0213 O   0  0  0  0  0  0  0  0  0  0  0  0
   -2.9311   -0.6130   -0.6364 N   0  0  0  0  0  0  0  0  0  0  0  0
    3.4890   -0.2496    0.5112 N   0  0  0  0  0  0  0  0  0  0  0  0
    5.6434    0.7857    0.2328 N   0  0  0  0  0  0  0  0  0  0  0  0
   -5.2115   -1.2017   -0.2641 C   0  0  0  0  0  0  0  0  0  0  0  0
   -6.2933   -1.3414    0.8090 C   0  0  0  0  0  0  0  0  0  0  0  0
   -5.6469   -0.3136   -1.4315 C   0  0  0  0  0  0  0  0  0  0  0  0
   -6.9102   -0.0072    1.2279 C   0  0  0  0  0  0  0  0  0  0  0  0
   -6.2542    1.0135   -0.9798 C   0  0  0  0  0  0  0  0  0  0  0  0
   -7.3802    0.8037    0.0259 C   0  0  0  0  0  0  0  0  0  0  0  0
   -3.9301   -0.6884    0.3259 C   0  0  0  0  0  0  0  0  0  0  0  0
   -1.5962   -0.1782   -0.4595 C   0  0  0  0  0  0  0  0  0  0  0  0
   -0.7363   -0.1710   -1.5455 C   0  0  0  0  0  0  0  0  0  0  0  0
   -1.1771    0.2313    0.7956 C   0  0  0  0  0  0  0  0  0  0  0  0
    1.0173    0.6728   -0.1138 C   0  0  0  0  0  0  0  0  0  0  0  0
    0.5797    0.2575   -1.3713 C   0  0  0  0  0  0  0  0  0  0  0  0
    0.1390    0.6598    0.9697 C   0  0  0  0  0  0  0  0  0  0  0  0
    4.9100   -0.3058    0.2972 C   0  0  0  0  0  0  0  0  0  0  0  0
    5.6124   -1.4898    0.1441 C   0  0  0  0  0  0  0  0  0  0  0  0
    6.8986   -1.0515   -0.0296 C   0  0  0  0  0  0  0  0  0  0  0  0
    8.1818   -1.7299   -0.2482 C   0  0  0  0  0  0  0  0  0  0  0  0
   -4.9916   -2.2060   -0.6520 H   0  0  0  0  0  0  0  0  0  0  0  0
   -5.9103   -1.8633    1.6944 H   0  0  0  0  0  0  0  0  0  0  0  0
   -7.0949   -1.9750    0.4063 H   0  0  0  0  0  0  0  0  0  0  0  0
   -6.4155   -0.8584   -1.9970 H   0  0  0  0  0  0  0  0  0  0  0  0
   -4.8512   -0.1072   -2.1531 H   0  0  0  0  0  0  0  0  0  0  0  0
   -6.1884    0.5827    1.8037 H   0  0  0  0  0  0  0  0  0  0  0  0
   -7.7596   -0.1947    1.8951 H   0  0  0  0  0  0  0  0  0  0  0  0
   -6.6398    1.5546   -1.8515 H   0  0  0  0  0  0  0  0  0  0  0  0
   -5.4751    1.6439   -0.5342 H   0  0  0  0  0  0  0  0  0  0  0  0
   -8.2155    0.2862   -0.4614 H   0  0  0  0  0  0  0  0  0  0  0  0
   -7.7596    1.7751    0.3626 H   0  0  0  0  0  0  0  0  0  0  0  0
   -3.1397   -0.9481   -1.5735 H   0  0  0  0  0  0  0  0  0  0  0  0
   -1.0665   -0.4937   -2.5290 H   0  0  0  0  0  0  0  0  0  0  0  0
   -1.7957    0.2476    1.6808 H   0  0  0  0  0  0  0  0  0  0  0  0
    1.2494    0.2535   -2.2268 H   0  0  0  0  0  0  0  0  0  0  0  0
    0.4608    0.9720    1.9594 H   0  0  0  0  0  0  0  0  0  0  0  0
    2.9766   -1.1405    0.4906 H   0  0  0  0  0  0  0  0  0  0  0  0
    5.2614   -2.5110    0.1544 H   0  0  0  0  0  0  0  0  0  0  0  0
    8.8858   -1.4900    0.5547 H   0  0  0  0  0  0  0  0  0  0  0  0
    8.0550   -2.8167   -0.2740 H   0  0  0  0  0  0  0  0  0  0  0  0
    8.6250   -1.4181   -1.1990 H   0  0  0  0  0  0  0  0  0  0  0  0
  1  3  2  0  0  0  0
  1  4  2  0  0  0  0
  1  7  1  0  0  0  0
  1 19  1  0  0  0  0
  2 15  2  0  0  0  0
  5  8  1  0  0  0  0
  5 24  1  0  0  0  0
  6 15  1  0  0  0  0
  6 16  1  0  0  0  0
  6 37  1  0  0  0  0
  7 22  1  0  0  0  0
  7 42  1  0  0  0  0
  8 22  2  0  0  0  0
  9 10  1  0  0  0  0
  9 11  1  0  0  0  0
  9 15  1  0  0  0  0
  9 26  1  0  0  0  0
 10 12  1  0  0  0  0
 10 27  1  0  0  0  0
 10 28  1  0  0  0  0
 11 13  1  0  0  0  0
 11 29  1  0  0  0  0
 11 30  1  0  0  0  0
 12 14  1  0  0  0  0
 12 31  1  0  0  0  0
 12 32  1  0  0  0  0
 13 14  1  0  0  0  0
 13 33  1  0  0  0  0
 13 34  1  0  0  0  0
 14 35  1  0  0  0  0
 14 36  1  0  0  0  0
 16 17  2  0  0  0  0
 16 18  1  0  0  0  0
 17 20  1  0  0  0  0
 17 38  1  0  0  0  0
 18 21  2  0  0  0  0
 18 39  1  0  0  0  0
 19 20  2  0  0  0  0
 19 21  1  0  0  0  0
 20 40  1  0  0  0  0
 21 41  1  0  0  0  0
 22 23  1  0  0  0  0
 23 24  2  0  0  0  0
 23 43  1  0  0  0  0
 24 25  1  0  0  0  0
 25 44  1  0  0  0  0
 25 45  1  0  0  0  0
 25 46  1  0  0  0  0
M  END
> <PUBCHEM_COMPOUND_CID>
1181036

> <PUBCHEM_CONFORMER_RMSD>
0.8

> <PUBCHEM_CONFORMER_DIVERSEORDER>
25
167
142
104
22
159
15
46
98
137
156
60
33
135
120
71
3
164
73
61
17
5
147
134
91
53
105
141
72
113
14
100
115
123
92
94
2
29
143
75
117
126
111
107
158
133
65
109
136
59
140
121
34
96
97
165
24
81
145
119
139
67
129
20
144
153
36
131
163
112
151
110
41
77
45
93
7
118
26
79
78
63
146
95
150
161
32
48
16
154
74
9
89
76
12
57
103
152
38
19
138
108
47
122
88
124
49
125
99
66
39
10
83
130
160
166
155
40
51
54
4
52
37
116
42
132
28
85
13
50
70
1
114
30
86
56
8
80
127
31
23
148
157
82
35
62
87
102
11
69
6
18
55
128
43
84
27
68
149
58
101
90
21
64
44
162
106

> <PUBCHEM_MMFF94_PARTIAL_CHARGES>
27
1 1.45
15 0.57
16 0.12
17 -0.15
18 -0.15
19 -0.01
2 -0.57
20 -0.15
21 -0.15
22 0.43
23 -0.15
24 -0.04
25 0.18
3 -0.65
37 0.37
38 0.15
39 0.15
4 -0.65
40 0.15
41 0.15
42 0.42
43 0.15
5 -0.02
6 -0.55
7 -0.7
8 -0.41
9 0.06

> <PUBCHEM_EFFECTIVE_ROTOR_COUNT>
7.2

> <PUBCHEM_PHARMACOPHORE_FEATURES>
9
1 2 acceptor
1 3 acceptor
1 4 acceptor
1 6 donor
1 7 donor
1 8 acceptor
5 5 8 22 23 24 rings
6 16 17 18 19 20 21 rings
6 9 10 11 12 13 14 rings

> <PUBCHEM_HEAVY_ATOM_COUNT>
25

> <PUBCHEM_ATOM_DEF_STEREO_COUNT>
0

> <PUBCHEM_ATOM_UDEF_STEREO_COUNT>
0

> <PUBCHEM_BOND_DEF_STEREO_COUNT>
0

> <PUBCHEM_BOND_UDEF_STEREO_COUNT>
0

> <PUBCHEM_ISOTOPIC_ATOM_COUNT>
0

> <PUBCHEM_COMPONENT_COUNT>
1

> <PUBCHEM_CACTVS_TAUTO_COUNT>
4

> <PUBCHEM_CONFORMER_ID>
0012056C00000019

> <PUBCHEM_MMFF94_ENERGY>
36.4166

> <PUBCHEM_FEATURE_SELFOVERLAP>
45.692

> <PUBCHEM_SHAPE_FINGERPRINT>
10 15 13542456571556620522
100830 39 18338797797920325305
10299344 5 15213019345230478211
10674148 151 17458343031560731776
11089746 13 16343699954643082203
11524674 6 18410291432571492291
11719270 70 16845576417575634742
11724838 91 10303806588402223384
12236239 1 17917709140588955338
12516196 113 17458060477935170140
12592606 108 18273209815982883967
13533116 47 18341894126048624352
13668630 136 18261112984743203314
13673619 4 18260265235956627884
13685833 64 18187083962282907266
13885169 127 18261392213256735277
13914758 101 18059858333540103521
14123256 10 13984662551260518762
14251764 18 16845570933471992400
14251764 46 16415759726393069806
14347424 109 16988836195123371682
14461889 52 11671774992338138284
14617045 38 17095522889896856546
14767858 380 13190339071666147454
14856354 85 15140685791560801859
14933364 13 17748827432007925597
15131766 46 17698430363109251872
15142383 8 18342172254660378756
15183329 4 17603577522072522291
15461852 350 14333122009660507405
15475509 8 16877944906047040668
19841028 212 18188206478247054330
20105231 36 16443351961938677019
20157964 124 8286202760793311600
21049683 271 12251910299880678271
21150785 3 12396301465189897651
21267235 1 15864357973984781107
21344244 181 18259989245933450650
21365058 27 14490193795835241769
21403212 168 17131832036663743062
21792934 111 17704060777797598784
22224240 67 13398626148154173036
2297311 6 16877940538492536143
23035841 295 15791728611623784969
23081809 10 18130223878104340701
23559900 14 18187643669003523720
23622692 88 17561081423534304964
24771293 8 13758075216214382666
28498 318 18412824659757636022
34797466 226 17022907861402819678
4072396 5 17060623304146159948
4093350 32 17895196658119006964
437815 12 18113618988808295148
465052 167 18272373105098481838
5104073 3 16844163648334885723
5207 217 11097857384585719900
5470011 282 17603594007075493710
59682541 35 11743829279161485991
59755656 215 17967246473142811147
6394761 36 18272932704386516591

> <PUBCHEM_SHAPE_MULTIPOLES>
479.92
23.6
1.49
1.28
9.02
0.11
-0.12
-7.42
1.15
1.39
0.09
-1.36
0.14
0.64

> <PUBCHEM_SHAPE_SELFOVERLAP>
1005.146

> <PUBCHEM_SHAPE_VOLUME>
271.7

> <PUBCHEM_COORDINATE_TYPE>
2
5
10

$$$$
