REMARK  Name = 1181036
REMARK  5 active torsions:
REMARK  status: ('A' for Active; 'I' for Inactive)
REMARK    1  A    between atoms: S_1  and  N_7
REMARK    2  A    between atoms: S_1  and  C_19
REMARK    3  A    between atoms: N_6  and  C_16
REMARK    4  A    between atoms: C_9  and  C_15
REMARK    5  A    between atoms: C_24  and  C_25
REMARK                            x       y       z     vdW  Elec       q    Type
REMARK                         _______ _______ _______ _____ _____    ______ ____
ROOT
ATOM     16  C   UNL     1      -1.596  -0.178  -0.460  0.00  0.00    +0.000 A 
ATOM     17  C   UNL     1      -0.736  -0.171  -1.546  0.00  0.00    +0.000 A 
ATOM     18  C   UNL     1      -1.177   0.231   0.796  0.00  0.00    +0.000 A 
ATOM     19  C   UNL     1       1.017   0.673  -0.114  0.00  0.00    +0.000 A 
ATOM     20  C   UNL     1       0.580   0.258  -1.371  0.00  0.00    +0.000 A 
ATOM     21  C   UNL     1       0.139   0.660   0.970  0.00  0.00    +0.000 A 
ENDROOT
BRANCH  16   6
ATOM      2  O   UNL     1      -3.860  -0.393   1.514  0.00  0.00    +0.000 OA
ATOM      6  N   UNL     1      -2.931  -0.613  -0.636  0.00  0.00    +0.000 N 
ATOM     15  C   UNL     1      -3.930  -0.688   0.326  0.00  0.00    +0.000 C 
ATOM     26  H   UNL     1      -3.140  -0.948  -1.573  0.00  0.00    +0.000 HD
BRANCH  15   9
ATOM      9  C   UNL     1      -5.212  -1.202  -0.264  0.00  0.00    +0.000 C 
ATOM     10  C   UNL     1      -6.293  -1.341   0.809  0.00  0.00    +0.000 C 
ATOM     11  C   UNL     1      -5.647  -0.314  -1.431  0.00  0.00    +0.000 C 
ATOM     12  C   UNL     1      -6.910  -0.007   1.228  0.00  0.00    +0.000 C 
ATOM     13  C   UNL     1      -6.254   1.014  -0.980  0.00  0.00    +0.000 C 
ATOM     14  C   UNL     1      -7.380   0.804   0.026  0.00  0.00    +0.000 C 
ENDBRANCH  15   9
ENDBRANCH  16   6
BRANCH  19   1
ATOM      1  S   UNL     1       2.665   1.208   0.105  0.00  0.00    +0.000 S 
ATOM      3  O   UNL     1       2.696   2.086   1.269  0.00  0.00    +0.000 OA
ATOM      4  O   UNL     1       3.165   1.712  -1.169  0.00  0.00    +0.000 OA
BRANCH   1   7
ATOM      5  O   UNL     1       6.930   0.305   0.021  0.00  0.00    +0.000 OA
ATOM      7  N   UNL     1       3.489  -0.250   0.511  0.00  0.00    +0.000 N 
ATOM      8  N   UNL     1       5.643   0.786   0.233  0.00  0.00    +0.000 NA
ATOM     22  C   UNL     1       4.910  -0.306   0.297  0.00  0.00    +0.000 A 
ATOM     23  C   UNL     1       5.612  -1.490   0.144  0.00  0.00    +0.000 A 
ATOM     24  C   UNL     1       6.899  -1.052  -0.030  0.00  0.00    +0.000 A 
ATOM     25  C   UNL     1       8.182  -1.730  -0.248  0.00  0.00    +0.000 C 
ATOM     27  H   UNL     1       2.977  -1.141   0.491  0.00  0.00    +0.000 HD
ENDBRANCH   1   7
ENDBRANCH  19   1
TORSDOF 4
