REMARK  Name = 678193
REMARK  9 active torsions:
REMARK  status: ('A' for Active; 'I' for Inactive)
REMARK    1  A    between atoms: S_1  and  N_6
REMARK    2  A    between atoms: S_1  and  C_9
REMARK    3  A    between atoms: N_6  and  C_12
REMARK    4  A    between atoms: N_7  and  C_11
REMARK    5  A    between atoms: C_10  and  C_16
REMARK    6  A    between atoms: C_10  and  C_19
REMARK    7  A    between atoms: C_10  and  C_20
REMARK    8  A    between atoms: C_15  and  C_22
REMARK    9  A    between atoms: C_21  and  C_23
REMARK                            x       y       z     vdW  Elec       q    Type
REMARK                         _______ _______ _______ _____ _____    ______ ____
ROOT
ATOM      9  C   UNL     1      -0.107   1.060   0.200  0.00  0.00    +0.000 A 
ATOM     11  C   UNL     1      -2.790   0.418   0.446  0.00  0.00    +0.000 A 
ATOM     13  C   UNL     1      -0.764   1.262   1.414  0.00  0.00    +0.000 A 
ATOM     14  C   UNL     1      -0.802   0.535  -0.890  0.00  0.00    +0.000 A 
ATOM     17  C   UNL     1      -2.115   0.938   1.538  0.00  0.00    +0.000 A 
ATOM     18  C   UNL     1      -2.153   0.212  -0.766  0.00  0.00    +0.000 A 
ENDROOT
BRANCH  11   7
ATOM      5  O   UNL     1      -4.703  -0.726  -1.559  0.00  0.00    +0.000 OA
ATOM      7  N   UNL     1      -4.161   0.090   0.573  0.00  0.00    +0.000 N 
ATOM     16  C   UNL     1      -5.002  -0.439  -0.403  0.00  0.00    +0.000 C 
ATOM     25  H   UNL     1      -4.560   0.264   1.492  0.00  0.00    +0.000 HD
BRANCH  16  10
ATOM     10  C   UNL     1      -6.420  -0.651   0.135  0.00  0.00    +0.000 C 
ATOM     19  C   UNL     1      -7.462  -0.476  -0.968  0.00  0.00    +0.000 C 
ATOM     20  C   UNL     1      -6.540  -2.038   0.764  0.00  0.00    +0.000 C 
ENDBRANCH  16  10
ENDBRANCH  11   7
BRANCH   9   1
ATOM      1  S   UNL     1       1.584   1.466   0.044  0.00  0.00    +0.000 S 
ATOM      3  O   UNL     1       1.893   2.473   1.052  0.00  0.00    +0.000 OA
ATOM      4  O   UNL     1       1.866   1.762  -1.355  0.00  0.00    +0.000 OA
BRANCH   1   6
ATOM      6  N   UNL     1       2.371   0.000   0.494  0.00  0.00    +0.000 N 
ATOM     24  H   UNL     1       1.847  -0.800   0.867  0.00  0.00    +0.000 HD
BRANCH   6  12
ATOM      2  O   UNL     1       4.378   0.593  -0.845  0.00  0.00    +0.000 OA
ATOM      8  N   UNL     1       5.658   0.099  -1.065  0.00  0.00    +0.000 NA
ATOM     12  C   UNL     1       3.719  -0.211   0.039  0.00  0.00    +0.000 A 
ATOM     15  C   UNL     1       4.555  -1.241   0.410  0.00  0.00    +0.000 A 
ATOM     21  C   UNL     1       5.741  -0.997  -0.304  0.00  0.00    +0.000 A 
ATOM     22  C   UNL     1       4.269  -2.344   1.343  0.00  0.00    +0.000 C 
ATOM     23  C   UNL     1       6.985  -1.784  -0.295  0.00  0.00    +0.000 C 
ENDBRANCH   6  12
ENDBRANCH   1   6
ENDBRANCH   9   1
TORSDOF 5
