REMARK  Name = 2813558
REMARK  5 active torsions:
REMARK  status: ('A' for Active; 'I' for Inactive)
REMARK    1  A    between atoms: N_5  and  C_14
REMARK    2  A    between atoms: C_6  and  C_7
REMARK    3  A    between atoms: C_6  and  C_8
REMARK    4  A    between atoms: C_6  and  C_9
REMARK    5  A    between atoms: C_6  and  C_10
REMARK                            x       y       z     vdW  Elec       q    Type
REMARK                         _______ _______ _______ _____ _____    ______ ____
ROOT
ATOM      1  O   UNL     1      -3.081  -1.209   0.001  0.00  0.00    +0.000 OA
ATOM      2  O   UNL     1       1.175  -1.362   0.000  0.00  0.00    +0.000 OA
ATOM      3  N   UNL     1      -1.692  -1.164   0.001  0.00  0.00    +0.000 NA
ATOM      4  N   UNL     1      -0.092   0.610  -0.002  0.00  0.00    +0.000 N 
ATOM      5  N   UNL     1       2.213   0.733  -0.001  0.00  0.00    +0.000 N 
ATOM      7  C   UNL     1      -3.492   0.049   0.000  0.00  0.00    +0.000 A 
ATOM     11  C   UNL     1      -2.534   0.952  -0.001  0.00  0.00    +0.000 A 
ATOM     12  C   UNL     1      -1.389   0.138  -0.001  0.00  0.00    +0.000 A 
ATOM     13  C   UNL     1       1.111  -0.137  -0.001  0.00  0.00    +0.000 C 
ATOM     20  H   UNL     1      -0.004   1.623  -0.003  0.00  0.00    +0.000 HD
ATOM     21  H   UNL     1       2.007   1.729  -0.001  0.00  0.00    +0.000 HD
ENDROOT
BRANCH   5  14
ATOM     14  C   UNL     1       3.588   0.398  -0.001  0.00  0.00    +0.000 A 
ATOM     15  C   UNL     1       4.533   1.411   0.001  0.00  0.00    +0.000 A 
ATOM     16  C   UNL     1       3.960  -0.936  -0.002  0.00  0.00    +0.000 A 
ATOM     17  C   UNL     1       5.888   1.081   0.002  0.00  0.00    +0.000 A 
ATOM     18  C   UNL     1       5.316  -1.267  -0.001  0.00  0.00    +0.000 A 
ATOM     19  C   UNL     1       6.279  -0.258   0.001  0.00  0.00    +0.000 A 
ENDBRANCH   5  14
BRANCH   7   6
ATOM      6  C   UNL     1      -5.033   0.195   0.000  0.00  0.00    +0.000 C 
ATOM      8  C   UNL     1      -5.487   0.966  -1.258  0.00  0.00    +0.000 C 
ATOM      9  C   UNL     1      -5.487   0.961   1.262  0.00  0.00    +0.000 C 
ATOM     10  C   UNL     1      -5.774  -1.160  -0.002  0.00  0.00    +0.000 C 
ENDBRANCH   7   6
TORSDOF 2
