536471
  -OEChem-05112508173D

 50 51  0     0  0  0  0  0  0999 V2000
   -3.7658   -2.3093    0.2910 S   0  0  0  0  0  0  0  0  0  0  0  0
    4.4187    0.0901    1.6682 F   0  0  0  0  0  0  0  0  0  0  0  0
    2.5565   -0.8858    2.2154 F   0  0  0  0  0  0  0  0  0  0  0  0
    4.1536   -2.0272    1.2747 F   0  0  0  0  0  0  0  0  0  0  0  0
    4.7470   -1.6796   -1.2176 F   0  0  0  0  0  0  0  0  0  0  0  0
    5.0116    0.4501   -0.8437 F   0  0  0  0  0  0  0  0  0  0  0  0
    3.6373   -0.2251   -2.3954 F   0  0  0  0  0  0  0  0  0  0  0  0
    3.8398    2.2899    0.4074 O   0  0  0  0  0  0  0  0  0  0  0  0
   -4.1489   -3.6128   -0.2372 O   0  0  0  0  0  0  0  0  0  0  0  0
   -4.0674   -1.9811    1.6788 O   0  0  0  0  0  0  0  0  0  0  0  0
   -4.8253    2.0283    0.8833 O   0  0  0  0  0  0  0  0  0  0  0  0
    2.0557   -1.6163   -0.5401 N   0  0  0  0  0  0  0  0  0  0  0  0
    2.2073    0.7432   -0.2069 N   0  0  0  0  0  0  0  0  0  0  0  0
   -4.3978   -1.0894   -0.7223 N   0  0  0  0  0  0  0  0  0  0  0  0
   -4.4400    0.6935    0.9112 N   0  0  0  0  0  0  0  0  0  0  0  0
    2.9493   -0.5213   -0.1256 C   0  0  0  0  0  0  0  0  0  0  0  0
    3.5155   -0.8319    1.2678 C   0  0  0  0  0  0  0  0  0  0  0  0
    4.0963   -0.4979   -1.1519 C   0  0  0  0  0  0  0  0  0  0  0  0
    0.6932   -1.7783   -0.3458 C   0  0  0  0  0  0  0  0  0  0  0  0
    2.6966    2.0142    0.0585 C   0  0  0  0  0  0  0  0  0  0  0  0
    1.6110    3.0664   -0.1098 C   0  0  0  0  0  0  0  0  0  0  0  0
    0.0456   -1.0772    0.6714 C   0  0  0  0  0  0  0  0  0  0  0  0
   -0.0306   -2.6426   -1.1673 C   0  0  0  0  0  0  0  0  0  0  0  0
   -2.0496   -2.1045    0.0454 C   0  0  0  0  0  0  0  0  0  0  0  0
    2.0849    4.4910    0.1683 C   0  0  0  0  0  0  0  0  0  0  0  0
   -1.3258   -1.2402    0.8669 C   0  0  0  0  0  0  0  0  0  0  0  0
   -1.4019   -2.8057   -0.9717 C   0  0  0  0  0  0  0  0  0  0  0  0
    0.9605    5.5113    0.0582 C   0  0  0  0  0  0  0  0  0  0  0  0
   -4.6628    0.2435   -0.3269 C   0  0  0  0  0  0  0  0  0  0  0  0
   -5.1830    1.2396   -1.1712 C   0  0  0  0  0  0  0  0  0  0  0  0
   -5.2659    2.3417   -0.3620 C   0  0  0  0  0  0  0  0  0  0  0  0
   -5.7153    3.7235   -0.5708 C   0  0  0  0  0  0  0  0  0  0  0  0
    2.4867   -2.3304   -1.1219 H   0  0  0  0  0  0  0  0  0  0  0  0
    1.2775    0.6957   -0.6104 H   0  0  0  0  0  0  0  0  0  0  0  0
    0.7888    2.8118    0.5705 H   0  0  0  0  0  0  0  0  0  0  0  0
    1.2271    3.0007   -1.1352 H   0  0  0  0  0  0  0  0  0  0  0  0
    0.5576   -0.4008    1.3447 H   0  0  0  0  0  0  0  0  0  0  0  0
    0.4609   -3.1934   -1.9654 H   0  0  0  0  0  0  0  0  0  0  0  0
    2.5189    4.5468    1.1739 H   0  0  0  0  0  0  0  0  0  0  0  0
    2.8847    4.7566   -0.5334 H   0  0  0  0  0  0  0  0  0  0  0  0
   -1.8086   -0.6831    1.6646 H   0  0  0  0  0  0  0  0  0  0  0  0
   -1.9471   -3.4785   -1.6277 H   0  0  0  0  0  0  0  0  0  0  0  0
    0.1643    5.2947    0.7775 H   0  0  0  0  0  0  0  0  0  0  0  0
    0.5267    5.5072   -0.9468 H   0  0  0  0  0  0  0  0  0  0  0  0
    1.3397    6.5174    0.2620 H   0  0  0  0  0  0  0  0  0  0  0  0
   -4.6933   -1.3551   -1.6705 H   0  0  0  0  0  0  0  0  0  0  0  0
   -5.4578    1.1704   -2.2136 H   0  0  0  0  0  0  0  0  0  0  0  0
   -6.5485    3.9624    0.0972 H   0  0  0  0  0  0  0  0  0  0  0  0
   -4.9013    4.4271   -0.3710 H   0  0  0  0  0  0  0  0  0  0  0  0
   -6.0517    3.8783   -1.6007 H   0  0  0  0  0  0  0  0  0  0  0  0
  1  9  2  0  0  0  0
  1 10  2  0  0  0  0
  1 14  1  0  0  0  0
  1 24  1  0  0  0  0
  2 17  1  0  0  0  0
  3 17  1  0  0  0  0
  4 17  1  0  0  0  0
  5 18  1  0  0  0  0
  6 18  1  0  0  0  0
  7 18  1  0  0  0  0
  8 20  2  0  0  0  0
 11 15  1  0  0  0  0
 11 31  1  0  0  0  0
 12 16  1  0  0  0  0
 12 19  1  0  0  0  0
 12 33  1  0  0  0  0
 13 16  1  0  0  0  0
 13 20  1  0  0  0  0
 13 34  1  0  0  0  0
 14 29  1  0  0  0  0
 14 46  1  0  0  0  0
 15 29  2  0  0  0  0
 16 17  1  0  0  0  0
 16 18  1  0  0  0  0
 19 22  2  0  0  0  0
 19 23  1  0  0  0  0
 20 21  1  0  0  0  0
 21 25  1  0  0  0  0
 21 35  1  0  0  0  0
 21 36  1  0  0  0  0
 22 26  1  0  0  0  0
 22 37  1  0  0  0  0
 23 27  2  0  0  0  0
 23 38  1  0  0  0  0
 24 26  2  0  0  0  0
 24 27  1  0  0  0  0
 25 28  1  0  0  0  0
 25 39  1  0  0  0  0
 25 40  1  0  0  0  0
 26 41  1  0  0  0  0
 27 42  1  0  0  0  0
 28 43  1  0  0  0  0
 28 44  1  0  0  0  0
 28 45  1  0  0  0  0
 29 30  1  0  0  0  0
 30 31  2  0  0  0  0
 30 47  1  0  0  0  0
 31 32  1  0  0  0  0
 32 48  1  0  0  0  0
 32 49  1  0  0  0  0
 32 50  1  0  0  0  0
M  END
> <PUBCHEM_COMPOUND_CID>
536471

> <PUBCHEM_CONFORMER_RMSD>
1

> <PUBCHEM_CONFORMER_DIVERSEORDER>
1
90
168
210
144
50
205
133
106
148
36
208
198
126
201
70
34
8
86
187
4
192
109
169
21
119
131
176
191
130
212
127
97
181
206
182
166
47
153
54
159
190
93
158
31
84
139
202
156
85
164
24
99
69
101
112
125
160
17
75
13
73
78
98
211
161
157
189
120
151
87
203
42
146
175
137
184
183
102
59
43
80
81
179
124
162
165
60
209
46
180
129
65
23
140
40
77
194
152
107
38
92
91
174
186
122
26
177
48
56
35
33
41
115
67
57
95
167
170
37
123
173
79
74
195
185
20
45
83
53
188
200
204
52
7
27
142
207
155
108
135
88
199
117
163
76
100
110
178
145
132
66
71
121
141
96
68
193
89
10
147
116
30
51
197
154
29
64
22
49
149
12
62
82
138
172
111
171
55
16
104
103
61
11
2
72
136
58
196
143
63
128
32
5
25
39
28
94
150
105
114
18
15
134
3
44
118
6
14
113
19
9

> <PUBCHEM_MMFF94_PARTIAL_CHARGES>
38
1 1.45
10 -0.65
11 -0.02
12 -0.87
13 -0.73
14 -0.7
15 -0.41
16 0.67
17 1.02
18 1.02
19 0.1
2 -0.34
20 0.57
21 0.06
22 -0.15
23 -0.15
24 -0.01
26 -0.15
27 -0.15
29 0.43
3 -0.34
30 -0.15
31 -0.04
32 0.18
33 0.4
34 0.37
37 0.15
38 0.15
4 -0.34
41 0.15
42 0.15
46 0.42
47 0.15
5 -0.34
6 -0.34
7 -0.34
8 -0.57
9 -0.65

> <PUBCHEM_EFFECTIVE_ROTOR_COUNT>
11

> <PUBCHEM_PHARMACOPHORE_FEATURES>
11
1 10 acceptor
1 12 cation
1 12 donor
1 13 donor
1 14 donor
1 15 acceptor
1 28 hydrophobe
1 8 acceptor
1 9 acceptor
5 11 15 29 30 31 rings
6 19 22 23 24 26 27 rings

> <PUBCHEM_HEAVY_ATOM_COUNT>
32

> <PUBCHEM_ATOM_DEF_STEREO_COUNT>
0

> <PUBCHEM_ATOM_UDEF_STEREO_COUNT>
0

> <PUBCHEM_BOND_DEF_STEREO_COUNT>
0

> <PUBCHEM_BOND_UDEF_STEREO_COUNT>
0

> <PUBCHEM_ISOTOPIC_ATOM_COUNT>
0

> <PUBCHEM_COMPONENT_COUNT>
1

> <PUBCHEM_CACTVS_TAUTO_COUNT>
4

> <PUBCHEM_CONFORMER_ID>
00082F9700000001

> <PUBCHEM_MMFF94_ENERGY>
54.6263

> <PUBCHEM_FEATURE_SELFOVERLAP>
55.876

> <PUBCHEM_SHAPE_FINGERPRINT>
10439779 11 18339633448184246721
10842077 115 18051944165140753009
11273773 38 18337397028659504845
12107183 9 18117825617085504811
12403259 118 18339067285358041299
12596602 18 13984674628808866973
12633257 1 18261665983315025695
13583140 156 18114470036746906971
14117953 113 18051688850571868101
14251764 38 18337950211877867537
14466204 15 18409720747027874218
15001296 14 18265895942355610513
15238133 3 18187081733268935234
15320291 9 18338512058226024429
1601671 61 18410295774524199358
17844677 252 18338237179838363475
19078846 21 18333725845159353186
20715895 44 18269548343693978153
21033648 29 17774424053870251002
21315764 268 18334851753998586583
21864079 5 18340200916195337127
23559900 14 18201728305898098366
2838139 119 18338787915442481895
325973 47 18411982477355255797
3737641 26 8502377779973549041
4144715 1 18333737930770511402
5081480 168 17557742202352156852
508706 21 18411415116522123341
5895379 119 18343579668124681152
6086070 43 18336814368715533591

> <PUBCHEM_SHAPE_MULTIPOLES>
575.35
12.78
5.77
1.42
8.43
8.08
-0.1
3.99
0.84
2.15
0.3
-1
-0.66
0.77

> <PUBCHEM_SHAPE_SELFOVERLAP>
1201.146

> <PUBCHEM_SHAPE_VOLUME>
328.1

> <PUBCHEM_COORDINATE_TYPE>
2
5
10

$$$$
