562945
  -OEChem-05112508173D

 38 39  0     0  0  0  0  0  0999 V2000
   -1.2016    0.9494    0.2722 S   0  0  0  0  0  0  0  0  0  0  0  0
   -1.3977    2.2880   -0.2723 O   0  0  0  0  0  0  0  0  0  0  0  0
   -1.5637    0.6965    1.6615 O   0  0  0  0  0  0  0  0  0  0  0  0
   -5.2862   -1.4428   -0.4240 O   0  0  0  0  0  0  0  0  0  0  0  0
   -2.0215   -0.1691   -0.7501 N   0  0  0  0  0  0  0  0  0  0  0  0
   -3.9807   -1.5599   -0.8854 N   0  0  0  0  0  0  0  0  0  0  0  0
    4.5906   -0.5225   -0.5091 C   0  0  0  0  0  0  0  0  0  0  0  0
    5.5175    0.3649    0.3244 C   0  0  0  0  0  0  0  0  0  0  0  0
    3.1421   -0.1542   -0.3135 C   0  0  0  0  0  0  0  0  0  0  0  0
    6.9851    0.0064    0.0907 C   0  0  0  0  0  0  0  0  0  0  0  0
    0.4762    0.5234    0.0453 C   0  0  0  0  0  0  0  0  0  0  0  0
    2.4116   -0.7705    0.6915 C   0  0  0  0  0  0  0  0  0  0  0  0
    2.5626    0.7951   -1.1423 C   0  0  0  0  0  0  0  0  0  0  0  0
    1.0711   -0.4299    0.8719 C   0  0  0  0  0  0  0  0  0  0  0  0
    1.2220    1.1359   -0.9619 C   0  0  0  0  0  0  0  0  0  0  0  0
    7.2823   -1.4254    0.5067 C   0  0  0  0  0  0  0  0  0  0  0  0
   -3.4050   -0.4493   -0.4747 C   0  0  0  0  0  0  0  0  0  0  0  0
   -4.2315    0.4090    0.2317 C   0  0  0  0  0  0  0  0  0  0  0  0
   -5.4233   -0.2664    0.2395 C   0  0  0  0  0  0  0  0  0  0  0  0
   -6.7499    0.0215    0.7980 C   0  0  0  0  0  0  0  0  0  0  0  0
    4.7117   -1.5800   -0.2477 H   0  0  0  0  0  0  0  0  0  0  0  0
    4.8487   -0.4454   -1.5732 H   0  0  0  0  0  0  0  0  0  0  0  0
    5.2767    0.2710    1.3908 H   0  0  0  0  0  0  0  0  0  0  0  0
    5.3649    1.4187    0.0601 H   0  0  0  0  0  0  0  0  0  0  0  0
    7.2524    0.1506   -0.9622 H   0  0  0  0  0  0  0  0  0  0  0  0
    7.6114    0.6873    0.6787 H   0  0  0  0  0  0  0  0  0  0  0  0
    2.8659   -1.5134    1.3410 H   0  0  0  0  0  0  0  0  0  0  0  0
    3.1353    1.2776   -1.9292 H   0  0  0  0  0  0  0  0  0  0  0  0
    0.5067   -0.9233    1.6583 H   0  0  0  0  0  0  0  0  0  0  0  0
    0.7782    1.8759   -1.6219 H   0  0  0  0  0  0  0  0  0  0  0  0
    6.8365   -2.1516   -0.1789 H   0  0  0  0  0  0  0  0  0  0  0  0
    6.9227   -1.6306    1.5200 H   0  0  0  0  0  0  0  0  0  0  0  0
    8.3640   -1.5966    0.4941 H   0  0  0  0  0  0  0  0  0  0  0  0
   -1.4889   -0.9088   -1.2244 H   0  0  0  0  0  0  0  0  0  0  0  0
   -4.0431    1.3770    0.6712 H   0  0  0  0  0  0  0  0  0  0  0  0
   -7.0400   -0.7497    1.5182 H   0  0  0  0  0  0  0  0  0  0  0  0
   -6.7609    0.9871    1.3130 H   0  0  0  0  0  0  0  0  0  0  0  0
   -7.5031    0.0521    0.0047 H   0  0  0  0  0  0  0  0  0  0  0  0
  1  2  2  0  0  0  0
  1  3  2  0  0  0  0
  1  5  1  0  0  0  0
  1 11  1  0  0  0  0
  4  6  1  0  0  0  0
  4 19  1  0  0  0  0
  5 17  1  0  0  0  0
  5 34  1  0  0  0  0
  6 17  2  0  0  0  0
  7  8  1  0  0  0  0
  7  9  1  0  0  0  0
  7 21  1  0  0  0  0
  7 22  1  0  0  0  0
  8 10  1  0  0  0  0
  8 23  1  0  0  0  0
  8 24  1  0  0  0  0
  9 12  2  0  0  0  0
  9 13  1  0  0  0  0
 10 16  1  0  0  0  0
 10 25  1  0  0  0  0
 10 26  1  0  0  0  0
 11 14  2  0  0  0  0
 11 15  1  0  0  0  0
 12 14  1  0  0  0  0
 12 27  1  0  0  0  0
 13 15  2  0  0  0  0
 13 28  1  0  0  0  0
 14 29  1  0  0  0  0
 15 30  1  0  0  0  0
 16 31  1  0  0  0  0
 16 32  1  0  0  0  0
 16 33  1  0  0  0  0
 17 18  1  0  0  0  0
 18 19  2  0  0  0  0
 18 35  1  0  0  0  0
 19 20  1  0  0  0  0
 20 36  1  0  0  0  0
 20 37  1  0  0  0  0
 20 38  1  0  0  0  0
M  END
> <PUBCHEM_COMPOUND_CID>
562945

> <PUBCHEM_CONFORMER_RMSD>
0.8

> <PUBCHEM_CONFORMER_DIVERSEORDER>
21
48
34
31
46
50
62
30
1
23
64
9
32
26
4
18
20
66
68
65
60
13
58
40
3
29
5
56
28
6
63
67
33
69
7
25
57
10
8
14
24
44
54
36
45
35
42
41
43
17
53
16
27
59
22
2
52
19
70
47
49
11
39
55
12
61
71
37
15
38
51

> <PUBCHEM_MMFF94_PARTIAL_CHARGES>
23
1 1.45
11 -0.01
12 -0.15
13 -0.15
14 -0.15
15 -0.15
17 0.43
18 -0.15
19 -0.04
2 -0.65
20 0.18
27 0.15
28 0.15
29 0.15
3 -0.65
30 0.15
34 0.42
35 0.15
4 -0.02
5 -0.7
6 -0.41
7 0.14
9 -0.14

> <PUBCHEM_EFFECTIVE_ROTOR_COUNT>
6

> <PUBCHEM_PHARMACOPHORE_FEATURES>
7
1 16 hydrophobe
1 2 acceptor
1 3 acceptor
1 5 donor
1 6 acceptor
5 4 6 17 18 19 rings
6 9 11 12 13 14 15 rings

> <PUBCHEM_HEAVY_ATOM_COUNT>
20

> <PUBCHEM_ATOM_DEF_STEREO_COUNT>
0

> <PUBCHEM_ATOM_UDEF_STEREO_COUNT>
0

> <PUBCHEM_BOND_DEF_STEREO_COUNT>
0

> <PUBCHEM_BOND_UDEF_STEREO_COUNT>
0

> <PUBCHEM_ISOTOPIC_ATOM_COUNT>
0

> <PUBCHEM_COMPONENT_COUNT>
1

> <PUBCHEM_CACTVS_TAUTO_COUNT>
2

> <PUBCHEM_CONFORMER_ID>
0008970100000015

> <PUBCHEM_MMFF94_ENERGY>
20.3031

> <PUBCHEM_FEATURE_SELFOVERLAP>
35.54

> <PUBCHEM_SHAPE_FINGERPRINT>
10 15 15841545280798578250
106641 1 13470400098267390429
10670039 82 11819263464913572199
11089746 13 9007053561198234058
11315181 36 18060703905300226785
11524674 6 16343981420703233814
12166972 35 17894631461697340252
12236239 1 18410013247169594820
13288520 33 18411135836004792381
13533116 47 17968367971499408250
13668630 136 17240485801648548554
13862211 1 17822289055698314426
1420 363 18273496771701373814
14251764 18 16487257681918408647
14350574 20 16877944953550182477
15048467 5 9583516525905544358
15183329 4 13334732415025407820
15527383 91 14549015485713548938
15716309 27 18343019991163003822
17834072 8 14996285812729879930
18006028 8 17275384305109333377
18222031 100 17603584124144280980
19489759 90 11025515021705666191
200 152 18113618984317966729
20281389 69 10952052239033691618
21150785 3 12901551239066779050
21267235 1 18113341903024072245
22224240 67 14620790500962825012
23035841 295 18413387635612950658
23198884 109 10881400928530031092
23402539 116 18334292063229238228
23557571 272 17917434190079530928
23559900 14 16950852521711415060
23622692 88 11312054352862702592
26918003 58 16702023093269578643
3009799 131 17095240337331448164
34797466 226 17846505850977195972
351380 3 18334574655166574935
3545911 37 14273456985182247904
4325135 7 17989209257121375024
4340502 62 17418092105865205158
5104073 3 17844818177731944227
5283156 175 18334576815302821346
59682541 35 16415186919658892618
59755656 215 15140676965191713370
59755656 520 8934998144666936913
6328613 192 9943514242105600282
7495541 125 17632572786585641840

> <PUBCHEM_SHAPE_MULTIPOLES>
387.87
17.7
1.36
1.04
6.93
0.22
0.08
-6.67
1.7
-0.12
-0.16
-0.32
0.01
-0.91

> <PUBCHEM_SHAPE_SELFOVERLAP>
794.191

> <PUBCHEM_SHAPE_VOLUME>
224.8

> <PUBCHEM_COORDINATE_TYPE>
2
5
10

$$$$
