REMARK  Name = 562945
REMARK  7 active torsions:
REMARK  status: ('A' for Active; 'I' for Inactive)
REMARK    1  A    between atoms: S_1  and  N_5
REMARK    2  A    between atoms: S_1  and  C_11
REMARK    3  A    between atoms: C_7  and  C_8
REMARK    4  A    between atoms: C_7  and  C_9
REMARK    5  A    between atoms: C_8  and  C_10
REMARK    6  A    between atoms: C_10  and  C_16
REMARK    7  A    between atoms: C_19  and  C_20
REMARK                            x       y       z     vdW  Elec       q    Type
REMARK                         _______ _______ _______ _____ _____    ______ ____
ROOT
ATOM      1  S   UNL     1      -1.202   0.949   0.272  0.00  0.00    +0.000 S 
ATOM      2  O   UNL     1      -1.398   2.288  -0.272  0.00  0.00    +0.000 OA
ATOM      3  O   UNL     1      -1.564   0.697   1.661  0.00  0.00    +0.000 OA
ENDROOT
BRANCH   1   5
ATOM      4  O   UNL     1      -5.286  -1.443  -0.424  0.00  0.00    +0.000 OA
ATOM      5  N   UNL     1      -2.022  -0.169  -0.750  0.00  0.00    +0.000 N 
ATOM      6  N   UNL     1      -3.981  -1.560  -0.885  0.00  0.00    +0.000 NA
ATOM     17  C   UNL     1      -3.405  -0.449  -0.475  0.00  0.00    +0.000 A 
ATOM     18  C   UNL     1      -4.231   0.409   0.232  0.00  0.00    +0.000 A 
ATOM     19  C   UNL     1      -5.423  -0.266   0.239  0.00  0.00    +0.000 A 
ATOM     20  C   UNL     1      -6.750   0.021   0.798  0.00  0.00    +0.000 C 
ATOM     21  H   UNL     1      -1.489  -0.909  -1.224  0.00  0.00    +0.000 HD
ENDBRANCH   1   5
BRANCH   1  11
ATOM      9  C   UNL     1       3.142  -0.154  -0.314  0.00  0.00    +0.000 A 
ATOM     11  C   UNL     1       0.476   0.523   0.045  0.00  0.00    +0.000 A 
ATOM     12  C   UNL     1       2.412  -0.770   0.692  0.00  0.00    +0.000 A 
ATOM     13  C   UNL     1       2.563   0.795  -1.142  0.00  0.00    +0.000 A 
ATOM     14  C   UNL     1       1.071  -0.430   0.872  0.00  0.00    +0.000 A 
ATOM     15  C   UNL     1       1.222   1.136  -0.962  0.00  0.00    +0.000 A 
BRANCH   9   7
ATOM      7  C   UNL     1       4.591  -0.522  -0.509  0.00  0.00    +0.000 C 
BRANCH   7   8
ATOM      8  C   UNL     1       5.518   0.365   0.324  0.00  0.00    +0.000 C 
BRANCH   8  10
ATOM     10  C   UNL     1       6.985   0.006   0.091  0.00  0.00    +0.000 C 
ATOM     16  C   UNL     1       7.282  -1.425   0.507  0.00  0.00    +0.000 C 
ENDBRANCH   8  10
ENDBRANCH   7   8
ENDBRANCH   9   7
ENDBRANCH   1  11
TORSDOF 5
