1949759
  -OEChem-05112508173D

 48 50  0     0  0  0  0  0  0999 V2000
   -4.9967   -2.0552    0.1262 S   0  0  0  0  0  0  0  0  0  0  0  0
    0.4982    2.4199    1.0018 S   0  0  0  0  0  0  0  0  0  0  0  0
   -5.0403   -3.3692   -0.5031 O   0  0  0  0  0  0  0  0  0  0  0  0
   -5.5538   -1.8809    1.4619 O   0  0  0  0  0  0  0  0  0  0  0  0
   -6.9427    1.9505    0.7050 O   0  0  0  0  0  0  0  0  0  0  0  0
    3.2265   -1.1700   -0.2580 O   0  0  0  0  0  0  0  0  0  0  0  0
   -5.6988   -0.9092   -0.9266 N   0  0  0  0  0  0  0  0  0  0  0  0
    0.6480   -0.2375    0.2296 N   0  0  0  0  0  0  0  0  0  0  0  0
   -6.3151    0.7112    0.7423 N   0  0  0  0  0  0  0  0  0  0  0  0
    2.6396    0.9916    0.4438 N   0  0  0  0  0  0  0  0  0  0  0  0
   -3.3352   -1.5202    0.1569 C   0  0  0  0  0  0  0  0  0  0  0  0
   -2.9188   -0.5920    1.1113 C   0  0  0  0  0  0  0  0  0  0  0  0
   -2.4241   -2.0207   -0.7731 C   0  0  0  0  0  0  0  0  0  0  0  0
   -0.7018   -0.6723    0.2052 C   0  0  0  0  0  0  0  0  0  0  0  0
   -1.5912   -0.1646    1.1356 C   0  0  0  0  0  0  0  0  0  0  0  0
   -1.0965   -1.5933   -0.7488 C   0  0  0  0  0  0  0  0  0  0  0  0
   -6.2706    0.3225   -0.5275 C   0  0  0  0  0  0  0  0  0  0  0  0
   -6.8400    1.2467   -1.4082 C   0  0  0  0  0  0  0  0  0  0  0  0
   -7.2503    2.2585   -0.5809 C   0  0  0  0  0  0  0  0  0  0  0  0
    1.2337    0.9800    0.5520 C   0  0  0  0  0  0  0  0  0  0  0  0
   -7.9228    3.5439   -0.8051 C   0  0  0  0  0  0  0  0  0  0  0  0
    7.3683   -0.0420   -0.2181 C   0  0  0  0  0  0  0  0  0  0  0  0
    5.9378   -0.3962   -0.2236 C   0  0  0  0  0  0  0  0  0  0  0  0
    3.5297   -0.0266    0.0644 C   0  0  0  0  0  0  0  0  0  0  0  0
    7.7370    1.2922   -0.2779 C   0  0  0  0  0  0  0  0  0  0  0  0
    8.3166   -1.0501   -0.1532 C   0  0  0  0  0  0  0  0  0  0  0  0
    4.9444    0.4457    0.0971 C   0  0  0  0  0  0  0  0  0  0  0  0
    9.0909    1.6275   -0.2731 C   0  0  0  0  0  0  0  0  0  0  0  0
    9.6705   -0.7146   -0.1481 C   0  0  0  0  0  0  0  0  0  0  0  0
   10.0576    0.6242   -0.2080 C   0  0  0  0  0  0  0  0  0  0  0  0
   -3.6071   -0.1973    1.8532 H   0  0  0  0  0  0  0  0  0  0  0  0
   -2.7281   -2.7386   -1.5297 H   0  0  0  0  0  0  0  0  0  0  0  0
   -5.7968   -1.1622   -1.9182 H   0  0  0  0  0  0  0  0  0  0  0  0
   -1.2975    0.5038    1.9355 H   0  0  0  0  0  0  0  0  0  0  0  0
   -0.3950   -1.9869   -1.4789 H   0  0  0  0  0  0  0  0  0  0  0  0
    1.2665   -0.8678   -0.2751 H   0  0  0  0  0  0  0  0  0  0  0  0
   -6.9418    1.1958   -2.4823 H   0  0  0  0  0  0  0  0  0  0  0  0
   -8.8747    3.5794   -0.2663 H   0  0  0  0  0  0  0  0  0  0  0  0
   -8.1292    3.7019   -1.8682 H   0  0  0  0  0  0  0  0  0  0  0  0
   -7.2981    4.3713   -0.4548 H   0  0  0  0  0  0  0  0  0  0  0  0
    3.0521    1.8919    0.6778 H   0  0  0  0  0  0  0  0  0  0  0  0
    5.7156   -1.4232   -0.5045 H   0  0  0  0  0  0  0  0  0  0  0  0
    7.0214    2.1047   -0.3523 H   0  0  0  0  0  0  0  0  0  0  0  0
    8.0309   -2.0974   -0.1047 H   0  0  0  0  0  0  0  0  0  0  0  0
    5.1180    1.4688    0.4097 H   0  0  0  0  0  0  0  0  0  0  0  0
    9.3932    2.6695   -0.3250 H   0  0  0  0  0  0  0  0  0  0  0  0
   10.4235   -1.4956   -0.0975 H   0  0  0  0  0  0  0  0  0  0  0  0
   11.1118    0.8852   -0.2054 H   0  0  0  0  0  0  0  0  0  0  0  0
  1  3  2  0  0  0  0
  1  4  2  0  0  0  0
  1  7  1  0  0  0  0
  1 11  1  0  0  0  0
  2 20  2  0  0  0  0
  5  9  1  0  0  0  0
  5 19  1  0  0  0  0
  6 24  2  0  0  0  0
  7 17  1  0  0  0  0
  7 33  1  0  0  0  0
  8 14  1  0  0  0  0
  8 20  1  0  0  0  0
  8 36  1  0  0  0  0
  9 17  2  0  0  0  0
 10 20  1  0  0  0  0
 10 24  1  0  0  0  0
 10 41  1  0  0  0  0
 11 12  2  0  0  0  0
 11 13  1  0  0  0  0
 12 15  1  0  0  0  0
 12 31  1  0  0  0  0
 13 16  2  0  0  0  0
 13 32  1  0  0  0  0
 14 15  2  0  0  0  0
 14 16  1  0  0  0  0
 15 34  1  0  0  0  0
 16 35  1  0  0  0  0
 17 18  1  0  0  0  0
 18 19  2  0  0  0  0
 18 37  1  0  0  0  0
 19 21  1  0  0  0  0
 21 38  1  0  0  0  0
 21 39  1  0  0  0  0
 21 40  1  0  0  0  0
 22 23  1  0  0  0  0
 22 25  2  0  0  0  0
 22 26  1  0  0  0  0
 23 27  2  0  0  0  0
 23 42  1  0  0  0  0
 24 27  1  0  0  0  0
 25 28  1  0  0  0  0
 25 43  1  0  0  0  0
 26 29  2  0  0  0  0
 26 44  1  0  0  0  0
 27 45  1  0  0  0  0
 28 30  2  0  0  0  0
 28 46  1  0  0  0  0
 29 30  1  0  0  0  0
 29 47  1  0  0  0  0
 30 48  1  0  0  0  0
M  END
> <PUBCHEM_COMPOUND_CID>
1949759

> <PUBCHEM_CONFORMER_RMSD>
1

> <PUBCHEM_CONFORMER_DIVERSEORDER>
1
45
39
27
26
46
21
66
16
51
32
36
2
58
47
6
60
33
64
44
42
23
49
14
24
5
25
29
50
54
37
19
15
67
9
56
18
53
59
28
11
52
22
68
65
63
38
12
61
31
41
62
13
7
34
20
57
43
40
10
30
3
55
35
4
17
48
8

> <PUBCHEM_MMFF94_PARTIAL_CHARGES>
45
1 1.45
10 -0.49
11 -0.01
12 -0.15
13 -0.15
14 0.12
15 -0.15
16 -0.15
17 0.43
18 -0.15
19 -0.04
2 -0.38
20 0.5
21 0.18
22 0.03
23 -0.18
24 0.62
25 -0.15
26 -0.15
27 -0.14
28 -0.15
29 -0.15
3 -0.65
30 -0.15
31 0.15
32 0.15
33 0.42
34 0.15
35 0.15
36 0.37
37 0.15
4 -0.65
41 0.37
42 0.15
43 0.15
44 0.15
45 0.15
46 0.15
47 0.15
48 0.15
5 -0.02
6 -0.57
7 -0.7
8 -0.55
9 -0.41

> <PUBCHEM_EFFECTIVE_ROTOR_COUNT>
9

> <PUBCHEM_PHARMACOPHORE_FEATURES>
11
1 10 donor
1 2 acceptor
1 3 acceptor
1 4 acceptor
1 6 acceptor
1 7 donor
1 8 donor
1 9 acceptor
5 5 9 17 18 19 rings
6 11 12 13 14 15 16 rings
6 22 25 26 28 29 30 rings

> <PUBCHEM_HEAVY_ATOM_COUNT>
30

> <PUBCHEM_ATOM_DEF_STEREO_COUNT>
0

> <PUBCHEM_ATOM_UDEF_STEREO_COUNT>
0

> <PUBCHEM_BOND_DEF_STEREO_COUNT>
1

> <PUBCHEM_BOND_UDEF_STEREO_COUNT>
0

> <PUBCHEM_ISOTOPIC_ATOM_COUNT>
0

> <PUBCHEM_COMPONENT_COUNT>
1

> <PUBCHEM_CACTVS_TAUTO_COUNT>
10

> <PUBCHEM_CONFORMER_ID>
001DC03F00000001

> <PUBCHEM_MMFF94_ENERGY>
71.1367

> <PUBCHEM_FEATURE_SELFOVERLAP>
55.885

> <PUBCHEM_SHAPE_FINGERPRINT>
10162869 55 13758066403932968664
10190206 1 17917149391178169153
10299344 5 18202007664278370890
10674148 151 18259700117065633000
11181472 205 18262519187601584880
11211813 128 10881406421788538833
11211813 89 18343864416198916800
11315181 36 18060144266365975994
11408170 132 18408606985727797588
11578821 258 18338517555863245876
12082328 90 18114180864898754663
12089408 11 17967531299211922642
12104220 1 18130791123136477585
12664476 115 18341897411856530265
12838862 33 17489297578365226022
13885169 127 18408604768727281766
14856354 85 16732703891802076803
15065858 18 18343863338969045562
15183329 4 18412257325101430937
15301273 46 17917708024815272304
15419008 91 18059559339466003352
15461852 350 14692572117508529392
15604295 49 18336823199765088132
1577012 14 17822003212254846898
15890870 6 18338231558760199813
16087824 20 18340487751782467145
195137 175 18408887334615396040
20609170 92 18130231449973188052
21095123 145 10953745495234716664
21360442 43 18337390569155655627
21360443 89 9511166439830819405
21362267 313 18261667092550705736
21756936 100 17530685403784801819
22224240 67 14549023187312506286
23516275 100 17173758456133176933
335352 9 18343578547470447925
395649 100 18411420609157956689
4017518 198 16702305663521343774
4098825 35 18113614595283240732
44280117 145 18263926707934258447
4625314 4 18412829114577764222
59521270 166 18409448077435571614
59567204 34 18410292489338909109
59682541 35 10881690109010516916
6009941 240 18186806884856940067
6126387 218 18410011040205316080
6691757 9 15339124584214770631
9980921 7 17822002066543350621

> <PUBCHEM_SHAPE_MULTIPOLES>
581.68
33.75
2.89
1.03
54.31
0.66
0.08
13.19
-7.16
-7.68
-0.36
-1.55
0.08
1.17

> <PUBCHEM_SHAPE_SELFOVERLAP>
1217.726

> <PUBCHEM_SHAPE_VOLUME>
328.7

> <PUBCHEM_COORDINATE_TYPE>
2
5
10

$$$$
