REMARK  Name = 99331
REMARK  2 active torsions:
REMARK  status: ('A' for Active; 'I' for Inactive)
REMARK    1  A    between atoms: N_4  and  C_7
REMARK    2  A    between atoms: C_10  and  C_17
REMARK                            x       y       z     vdW  Elec       q    Type
REMARK                         _______ _______ _______ _____ _____    ______ ____
ROOT
ATOM      2  O   UNL     1      -4.516   1.099  -0.001  0.00  0.00    +0.000 OA
ATOM      3  O   UNL     1      -0.267   1.288  -0.002  0.00  0.00    +0.000 OA
ATOM      4  N   UNL     1       0.797  -0.799  -0.001  0.00  0.00    +0.000 N 
ATOM      5  N   UNL     1      -1.510  -0.692  -0.000  0.00  0.00    +0.000 N 
ATOM      6  N   UNL     1      -3.127   1.066  -0.001  0.00  0.00    +0.000 NA
ATOM      8  C   UNL     1      -2.844  -0.221  -0.000  0.00  0.00    +0.000 A 
ATOM      9  C   UNL     1      -3.949  -1.057   0.001  0.00  0.00    +0.000 A 
ATOM     10  C   UNL     1      -4.994  -0.172   0.001  0.00  0.00    +0.000 A 
ATOM     13  C   UNL     1      -0.327   0.063  -0.001  0.00  0.00    +0.000 C 
ATOM     17  C   UNL     1      -6.455  -0.323   0.002  0.00  0.00    +0.000 C 
ATOM     18  H   UNL     1       0.593  -1.796  -0.001  0.00  0.00    +0.000 HD
ATOM     19  H   UNL     1      -1.420  -1.705   0.001  0.00  0.00    +0.000 HD
ENDROOT
BRANCH   4   7
ATOM      1  F   UNL     1       6.160   0.526   0.003  0.00  0.00    +0.000 F 
ATOM      7  C   UNL     1       2.151  -0.465  -0.002  0.00  0.00    +0.000 A 
ATOM     11  C   UNL     1       3.118  -1.470  -0.001  0.00  0.00    +0.000 A 
ATOM     12  C   UNL     1       2.538   0.875  -0.000  0.00  0.00    +0.000 A 
ATOM     14  C   UNL     1       4.472  -1.135  -0.000  0.00  0.00    +0.000 A 
ATOM     15  C   UNL     1       3.893   1.210   0.001  0.00  0.00    +0.000 A 
ATOM     16  C   UNL     1       4.860   0.205   0.001  0.00  0.00    +0.000 A 
ENDBRANCH   4   7
TORSDOF 1
