4596756
  -OEChem-05112508123D

 26 27  0     0  0  0  0  0  0999 V2000
   -0.9727   -1.9281    2.3594 Cl  0  0  0  0  0  0  0  0  0  0  0  0
   -2.6373    2.1005   -2.1120 Cl  0  0  0  0  0  0  0  0  0  0  0  0
   -3.8523    2.3273    0.8787 Cl  0  0  0  0  0  0  0  0  0  0  0  0
    0.2528   -2.1674   -0.6243 S   0  0  0  0  0  0  0  0  0  0  0  0
    0.5132   -2.0340   -2.0508 O   0  0  0  0  0  0  0  0  0  0  0  0
   -0.2272   -3.4415   -0.1091 O   0  0  0  0  0  0  0  0  0  0  0  0
    2.6192    1.5282   -0.8262 O   0  0  0  0  0  0  0  0  0  0  0  0
    1.6703   -1.6925    0.2293 N   0  0  0  0  0  0  0  0  0  0  0  0
    2.0735    0.2781   -1.0917 N   0  0  0  0  0  0  0  0  0  0  0  0
   -0.8966   -0.9215   -0.1797 C   0  0  0  0  0  0  0  0  0  0  0  0
   -1.4202   -0.8237    1.1095 C   0  0  0  0  0  0  0  0  0  0  0  0
   -1.2842   -0.0090   -1.1610 C   0  0  0  0  0  0  0  0  0  0  0  0
    2.1413   -0.3434    0.0670 C   0  0  0  0  0  0  0  0  0  0  0  0
   -2.1950    1.0016   -0.8531 C   0  0  0  0  0  0  0  0  0  0  0  0
   -2.3312    0.1868    1.4173 C   0  0  0  0  0  0  0  0  0  0  0  0
    2.6949    0.4007    1.0959 C   0  0  0  0  0  0  0  0  0  0  0  0
   -2.7185    1.0995    0.4361 C   0  0  0  0  0  0  0  0  0  0  0  0
    2.9855    1.5890    0.4796 C   0  0  0  0  0  0  0  0  0  0  0  0
    3.5846    2.8494    0.9352 C   0  0  0  0  0  0  0  0  0  0  0  0
    1.8207   -2.1157    1.1544 H   0  0  0  0  0  0  0  0  0  0  0  0
   -0.8879   -0.0674   -2.1712 H   0  0  0  0  0  0  0  0  0  0  0  0
   -2.7394    0.2625    2.4233 H   0  0  0  0  0  0  0  0  0  0  0  0
    2.8647    0.1368    2.1291 H   0  0  0  0  0  0  0  0  0  0  0  0
    2.8849    3.6797    0.7979 H   0  0  0  0  0  0  0  0  0  0  0  0
    3.8486    2.8007    1.9962 H   0  0  0  0  0  0  0  0  0  0  0  0
    4.4951    3.0695    0.3693 H   0  0  0  0  0  0  0  0  0  0  0  0
  1 11  1  0  0  0  0
  2 14  1  0  0  0  0
  3 17  1  0  0  0  0
  4  5  2  0  0  0  0
  4  6  2  0  0  0  0
  4  8  1  0  0  0  0
  4 10  1  0  0  0  0
  7  9  1  0  0  0  0
  7 18  1  0  0  0  0
  8 13  1  0  0  0  0
  8 20  1  0  0  0  0
  9 13  2  0  0  0  0
 10 11  1  0  0  0  0
 10 12  2  0  0  0  0
 11 15  2  0  0  0  0
 12 14  1  0  0  0  0
 12 21  1  0  0  0  0
 13 16  1  0  0  0  0
 14 17  2  0  0  0  0
 15 17  1  0  0  0  0
 15 22  1  0  0  0  0
 16 18  2  0  0  0  0
 16 23  1  0  0  0  0
 18 19  1  0  0  0  0
 19 24  1  0  0  0  0
 19 25  1  0  0  0  0
 19 26  1  0  0  0  0
M  END
> <PUBCHEM_COMPOUND_CID>
4596756

> <PUBCHEM_CONFORMER_RMSD>
0.6

> <PUBCHEM_CONFORMER_DIVERSEORDER>
1
12
62
25
45
3
9
26
58
51
41
35
5
46
60
6
47
34
19
11
48
37
38
4
31
10
23
50
2
36
30
18
29
8
14
61
33
13
7
16
28
55
22
43
54
40
24
27
42
21
44
39
20
17
32
15
52
57
59
49
56
53

> <PUBCHEM_MMFF94_PARTIAL_CHARGES>
23
1 -0.18
10 -0.01
11 0.18
12 -0.15
13 0.43
14 0.18
15 -0.15
16 -0.15
17 0.18
18 -0.04
19 0.18
2 -0.18
20 0.42
21 0.15
22 0.15
23 0.15
3 -0.18
4 1.45
5 -0.65
6 -0.65
7 -0.02
8 -0.7
9 -0.41

> <PUBCHEM_EFFECTIVE_ROTOR_COUNT>
3

> <PUBCHEM_PHARMACOPHORE_FEATURES>
6
1 5 acceptor
1 6 acceptor
1 8 donor
1 9 acceptor
5 7 9 13 16 18 rings
6 10 11 12 14 15 17 rings

> <PUBCHEM_HEAVY_ATOM_COUNT>
19

> <PUBCHEM_ATOM_DEF_STEREO_COUNT>
0

> <PUBCHEM_ATOM_UDEF_STEREO_COUNT>
0

> <PUBCHEM_BOND_DEF_STEREO_COUNT>
0

> <PUBCHEM_BOND_UDEF_STEREO_COUNT>
0

> <PUBCHEM_ISOTOPIC_ATOM_COUNT>
0

> <PUBCHEM_COMPONENT_COUNT>
1

> <PUBCHEM_CACTVS_TAUTO_COUNT>
2

> <PUBCHEM_CONFORMER_ID>
0046241400000001

> <PUBCHEM_MMFF94_ENERGY>
24.1151

> <PUBCHEM_FEATURE_SELFOVERLAP>
30.467

> <PUBCHEM_SHAPE_FINGERPRINT>
10165383 225 17837255680267391220
11640471 11 17560508496103017777
11725454 13 17171766239050126413
12173636 292 18272653501674683545
12363563 72 8718831963759507800
12633257 1 17894634712301495320
128993 33 18265348359389083116
13134695 92 17690265024403401686
13294875 104 16883279569146037683
13764800 53 18266188403230683120
14142880 1 18193832871675217257
14614273 12 17983574397214918286
14787075 74 14934403390836371718
14817 1 8834648063172155815
15295992 7 18410020900938434280
15422964 175 10737289094702288240
16945 1 18051404076674989655
17349148 13 15141250859001554669
18981168 100 18129114466460688086
19765921 60 17774994670471722331
20511035 2 18187082832574867270
21041028 32 17259347661202499779
21296965 12 18335135418691414223
21475661 188 18048037363824332977
21524375 3 18335133185324225187
21639500 275 18196925578977741941
21731228 192 18261384542444826498
21947302 44 18266750077652560003
23175994 123 17834131753090575238
238 59 18059579040106014349
27216 239 18194401319171012128
31174 14 17977394837045088125
350125 39 18340777025997378302
474 4 18270114600566800777
49207404 50 18263099763826528145
81228 2 17977109285733509198

> <PUBCHEM_SHAPE_MULTIPOLES>
372.9
5.62
3.38
1.95
0.75
0.7
0.07
-6.23
-1.23
0.75
-0.08
-0.94
0.27
1.16

> <PUBCHEM_SHAPE_SELFOVERLAP>
755.78

> <PUBCHEM_SHAPE_VOLUME>
220.6

> <PUBCHEM_COORDINATE_TYPE>
2
5
10

$$$$
