REMARK  Name = 4596756
REMARK  3 active torsions:
REMARK  status: ('A' for Active; 'I' for Inactive)
REMARK    1  A    between atoms: S_4  and  N_8
REMARK    2  A    between atoms: S_4  and  C_10
REMARK    3  A    between atoms: C_18  and  C_19
REMARK                            x       y       z     vdW  Elec       q    Type
REMARK                         _______ _______ _______ _____ _____    ______ ____
ROOT
ATOM      4  S   UNL     1       0.253  -2.167  -0.624  0.00  0.00    +0.000 S 
ATOM      5  O   UNL     1       0.513  -2.034  -2.051  0.00  0.00    +0.000 OA
ATOM      6  O   UNL     1      -0.227  -3.442  -0.109  0.00  0.00    +0.000 OA
ENDROOT
BRANCH   4  10
ATOM      1 CL   UNL     1      -0.973  -1.928   2.359  0.00  0.00    +0.000 Cl
ATOM      2 CL   UNL     1      -2.637   2.100  -2.112  0.00  0.00    +0.000 Cl
ATOM      3 CL   UNL     1      -3.852   2.327   0.879  0.00  0.00    +0.000 Cl
ATOM     10  C   UNL     1      -0.897  -0.921  -0.180  0.00  0.00    +0.000 A 
ATOM     11  C   UNL     1      -1.420  -0.824   1.109  0.00  0.00    +0.000 A 
ATOM     12  C   UNL     1      -1.284  -0.009  -1.161  0.00  0.00    +0.000 A 
ATOM     14  C   UNL     1      -2.195   1.002  -0.853  0.00  0.00    +0.000 A 
ATOM     15  C   UNL     1      -2.331   0.187   1.417  0.00  0.00    +0.000 A 
ATOM     17  C   UNL     1      -2.719   1.099   0.436  0.00  0.00    +0.000 A 
ENDBRANCH   4  10
BRANCH   4   8
ATOM      7  O   UNL     1       2.619   1.528  -0.826  0.00  0.00    +0.000 OA
ATOM      8  N   UNL     1       1.670  -1.692   0.229  0.00  0.00    +0.000 N 
ATOM      9  N   UNL     1       2.074   0.278  -1.092  0.00  0.00    +0.000 NA
ATOM     13  C   UNL     1       2.141  -0.343   0.067  0.00  0.00    +0.000 A 
ATOM     16  C   UNL     1       2.695   0.401   1.096  0.00  0.00    +0.000 A 
ATOM     18  C   UNL     1       2.986   1.589   0.480  0.00  0.00    +0.000 A 
ATOM     19  C   UNL     1       3.585   2.849   0.935  0.00  0.00    +0.000 C 
ATOM     20  H   UNL     1       1.821  -2.116   1.154  0.00  0.00    +0.000 HD
ENDBRANCH   4   8
TORSDOF 2
